
 OpenBabel10052215123D

109  1  0  0  0  0  0  0  0  0999 V2000
    0.7477    0.6075    0.8031 Na  0  0  0  0  0 15  0  0  0  0  0  0
    2.0822    2.8968    0.3321 Ca  0  0  0  0  0 15  0  0  0  0  0  0
    2.9385    0.6327    2.7777 Ca  0  0  0  0  0 15  0  0  0  0  0  0
    0.5256    2.7662    2.8386 Na  0  0  0  0  0 15  0  0  0  0  0  0
    0.7477    0.6075    6.3631 Na  0  0  0  0  0 15  0  0  0  0  0  0
    2.0822    2.8968    5.8921 Ca  0  0  0  0  0 15  0  0  0  0  0  0
    2.9385    0.6327    8.3377 Ca  0  0  0  0  0 15  0  0  0  0  0  0
    0.5256    2.7662    8.3986 Na  0  0  0  0  0 15  0  0  0  0  0  0
    0.7477    0.6075   11.9231 Na  0  0  0  0  0 15  0  0  0  0  0  0
    2.0822    2.8968   11.4521 Ca  0  0  0  0  0 15  0  0  0  0  0  0
    2.9385    0.6327   13.8977 Ti  0  0  0  0  0 15  0  0  0  0  0  0
    0.5256    2.7662   13.9586 Na  0  0  0  0  0 15  0  0  0  0  0  0
    0.7477    6.1675    0.8031 Ca  0  0  0  0  0 15  0  0  0  0  0  0
    2.0822    8.4568    0.3321 Ca  0  0  0  0  0 15  0  0  0  0  0  0
    2.9385    6.1927    2.7777 Ca  0  0  0  0  0 15  0  0  0  0  0  0
    0.5256    8.3262    2.8386 Ca  0  0  0  0  0 15  0  0  0  0  0  0
    0.7477    6.1675    6.3631 Ca  0  0  0  0  0 15  0  0  0  0  0  0
    2.0822    8.4568    5.8921 Ca  0  0  0  0  0 15  0  0  0  0  0  0
    2.9385    6.1927    8.3377 Ca  0  0  0  0  0 15  0  0  0  0  0  0
    0.5256    8.3262    8.3986 Ca  0  0  0  0  0 15  0  0  0  0  0  0
    0.7477    6.1675   11.9231 Mg  0  0  0  0  0 15  0  0  0  0  0  0
    2.0822    8.4568   11.4521 Ca  0  0  0  0  0 15  0  0  0  0  0  0
    2.9385    6.1927   13.8977 Ca  0  0  0  0  0 15  0  0  0  0  0  0
    0.5256    8.3262   13.9586 Mg  0  0  0  0  0 15  0  0  0  0  0  0
    0.7477   11.7275    0.8031 Ca  0  0  0  0  0 15  0  0  0  0  0  0
    2.0822   14.0168    0.3321 P   0  0  0  0  0  0  0  0  0  0  0  0
    2.9385   11.7527    2.7777 Ca  0  0  0  0  0 15  0  0  0  0  0  0
    0.5256   13.8862    2.8386 Ca  0  0  0  0  0 15  0  0  0  0  0  0
    0.7477   11.7275    6.3631 Ca  0  0  0  0  0 15  0  0  0  0  0  0
    2.0822   14.0168    5.8921 Ca  0  0  0  0  0 15  0  0  0  0  0  0
    2.9385   11.7527    8.3377 Ca  0  0  0  0  0 15  0  0  0  0  0  0
    0.5256   13.8862    8.3986 Ca  0  0  0  0  0 15  0  0  0  0  0  0
    0.7477   11.7275   11.9231 Ca  0  0  0  0  0 15  0  0  0  0  0  0
    2.0822   14.0168   11.4521 Ca  0  0  0  0  0 15  0  0  0  0  0  0
    2.9385   11.7527   13.8977 Mg  0  0  0  0  0 15  0  0  0  0  0  0
    0.5256   13.8862   13.9586 Mg  0  0  0  0  0 15  0  0  0  0  0  0
    6.3077    0.6075    0.8031 Ca  0  0  0  0  0 15  0  0  0  0  0  0
    7.6422    2.8968    0.3321 Ca  0  0  0  0  0 15  0  0  0  0  0  0
    8.4985    0.6327    2.7777 Ca  0  0  0  0  0 15  0  0  0  0  0  0
    6.0856    2.7662    2.8386 Ca  0  0  0  0  0 15  0  0  0  0  0  0
    6.3077    0.6075    6.3631 Ca  0  0  0  0  0 15  0  0  0  0  0  0
    7.6422    2.8968    5.8921 Ca  0  0  0  0  0 15  0  0  0  0  0  0
    8.4985    0.6327    8.3377 Ca  0  0  0  0  0 15  0  0  0  0  0  0
    6.0856    2.7662    8.3986 Ca  0  0  0  0  0 15  0  0  0  0  0  0
    6.3077    0.6075   11.9231 Ca  0  0  0  0  0 15  0  0  0  0  0  0
    7.6422    2.8968   11.4521 Ca  0  0  0  0  0 15  0  0  0  0  0  0
    8.4985    0.6327   13.8977 Ti  0  0  0  0  0 15  0  0  0  0  0  0
    6.0856    2.7662   13.9586 Mg  0  0  0  0  0 15  0  0  0  0  0  0
    6.3077    6.1675    0.8031 Ca  0  0  0  0  0 15  0  0  0  0  0  0
    7.6422    8.4568    0.3321 Ca  0  0  0  0  0 15  0  0  0  0  0  0
    8.4985    6.1927    2.7777 Ca  0  0  0  0  0 15  0  0  0  0  0  0
    6.0856    8.3262    2.8386 Ca  0  0  0  0  0 15  0  0  0  0  0  0
    6.3077    6.1675    6.3631 Ca  0  0  0  0  0 15  0  0  0  0  0  0
    7.6422    8.4568    5.8921 Ca  0  0  0  0  0 15  0  0  0  0  0  0
    8.4985    6.1927    8.3377 Ca  0  0  0  0  0 15  0  0  0  0  0  0
    6.0856    8.3262    8.3986 Ca  0  0  0  0  0 15  0  0  0  0  0  0
    6.3077    6.1675   11.9231 Mg  0  0  0  0  0 15  0  0  0  0  0  0
    7.6422    8.4568   11.4521 Ca  0  0  0  0  0 15  0  0  0  0  0  0
    8.4985    6.1927   13.8977 Mg  0  0  0  0  0 15  0  0  0  0  0  0
    6.0856    8.3262   13.9586 Ca  0  0  0  0  0 15  0  0  0  0  0  0
    6.3077   11.7275    0.8031 Ca  0  0  0  0  0 15  0  0  0  0  0  0
    7.6422   14.0168    0.3321 P   0  0  0  0  0  0  0  0  0  0  0  0
    8.4985   11.7527    2.7777 Ca  0  0  0  0  0 15  0  0  0  0  0  0
    6.0856   13.8862    2.8386 Ca  0  0  0  0  0 15  0  0  0  0  0  0
    6.3077   11.7275    6.3631 Ca  0  0  0  0  0 15  0  0  0  0  0  0
    7.6422   14.0168    5.8921 Ca  0  0  0  0  0 15  0  0  0  0  0  0
    8.4985   11.7527    8.3377 Ca  0  0  0  0  0 15  0  0  0  0  0  0
    6.0856   13.8862    8.3986 Ca  0  0  0  0  0 15  0  0  0  0  0  0
    6.3077   11.7275   11.9231 Ca  0  0  0  0  0 15  0  0  0  0  0  0
    7.6422   14.0168   11.4521 Ca  0  0  0  0  0 15  0  0  0  0  0  0
    8.4985   11.7527   13.8977 K   0  0  0  0  0 15  0  0  0  0  0  0
    6.0856   13.8862   13.9586 K   0  0  0  0  0 15  0  0  0  0  0  0
   11.8677    0.6075    0.8031 Ca  0  0  0  0  0 15  0  0  0  0  0  0
   13.2022    2.8968    0.3321 Ca  0  0  0  0  0 15  0  0  0  0  0  0
   14.0585    0.6327    2.7777 Ca  0  0  0  0  0 15  0  0  0  0  0  0
   11.6456    2.7662    2.8386 Ca  0  0  0  0  0 15  0  0  0  0  0  0
   11.8677    0.6075    6.3631 Ca  0  0  0  0  0 15  0  0  0  0  0  0
   13.2022    2.8968    5.8921 Ca  0  0  0  0  0 15  0  0  0  0  0  0
   14.0585    0.6327    8.3377 Ca  0  0  0  0  0 15  0  0  0  0  0  0
   11.6456    2.7662    8.3986 Ca  0  0  0  0  0 15  0  0  0  0  0  0
   11.8677    0.6075   11.9231 Ca  0  0  0  0  0 15  0  0  0  0  0  0
   13.2022    2.8968   11.4521 Ca  0  0  0  0  0 15  0  0  0  0  0  0
   14.0585    0.6327   13.8977 Mn  0  0  0  0  0 15  0  0  0  0  0  0
   11.6456    2.7662   13.9586 Ca  0  0  0  0  0 15  0  0  0  0  0  0
   11.8677    6.1675    0.8031 Ca  0  0  0  0  0 15  0  0  0  0  0  0
   13.2022    8.4568    0.3321 Ca  0  0  0  0  0 15  0  0  0  0  0  0
   14.0585    6.1927    2.7777 Ca  0  0  0  0  0 15  0  0  0  0  0  0
   11.6456    8.3262    2.8386 Ca  0  0  0  0  0 15  0  0  0  0  0  0
   11.8677    6.1675    6.3631 Ca  0  0  0  0  0 15  0  0  0  0  0  0
   13.2022    8.4568    5.8921 Ca  0  0  0  0  0 15  0  0  0  0  0  0
   14.0585    6.1927    8.3377 Ca  0  0  0  0  0 15  0  0  0  0  0  0
   11.6456    8.3262    8.3986 Ca  0  0  0  0  0 15  0  0  0  0  0  0
   11.8677    6.1675   11.9231 Ca  0  0  0  0  0 15  0  0  0  0  0  0
   13.2022    8.4568   11.4521 Ca  0  0  0  0  0 15  0  0  0  0  0  0
   14.0585    6.1927   13.8977 Ca  0  0  0  0  0 15  0  0  0  0  0  0
   11.6456    8.3262   13.9586 Ca  0  0  0  0  0 15  0  0  0  0  0  0
   11.8677   11.7275    0.8031 Ca  0  0  0  0  0 15  0  0  0  0  0  0
   13.2022   14.0168    0.3321 F   0  0  0  0  0  0  0  0  0  0  0  0
   14.0585   11.7527    2.7777 Ca  0  0  0  0  0 15  0  0  0  0  0  0
   11.6456   13.8862    2.8386 Ca  0  0  0  0  0 15  0  0  0  0  0  0
   11.8677   11.7275    6.3631 Ca  0  0  0  0  0 15  0  0  0  0  0  0
   13.2022   14.0168    5.8921 Ca  0  0  0  0  0 15  0  0  0  0  0  0
   14.0585   11.7527    8.3377 Ca  0  0  0  0  0 15  0  0  0  0  0  0
   11.6456   13.8862    8.3986 Ca  0  0  0  0  0 15  0  0  0  0  0  0
   11.8677   11.7275   11.9231 Ca  0  0  0  0  0 15  0  0  0  0  0  0
   13.2022   14.0168   11.4521 Ca  0  0  0  0  0 15  0  0  0  0  0  0
   14.0585   11.7527   13.8977 K   0  0  0  0  0 15  0  0  0  0  0  0
   11.6456   13.8862   13.9586 K   0  0  0  0  0 15  0  0  0  0  0  0
   14.0822   14.0168    0.3321 H   0  0  0  0  0  0  0  0  0  0  0  0
 98109  1  0  0  0  0
M  CHG  8   5  -6   6  -6   7  -6   8  -6   9  -6  10  -6  11  -6  12  -6
M  CHG  8  13  -6  14  -6  15  -6  16  -6  17  -6  18  -6  19  -6  20  -6
M  CHG  8  21  -6  22  -6  23  -6  24  -6  25  -6  26  -6  27  -6  28  -6
M  CHG  8  29  -6  30  -6  31  -6  32  -6  33  -6  34  -6  35  -6  36  -6
M  CHG  8  37  -6  38  -6  39  -6  40  -6  41  -6  42  -6  43  -6  44  -6
M  CHG  8  45  -6  46  -6  47  -6  48  -6  49  -6  50  -6  51  -6  52  -6
M  CHG  8  53  -6  54  -6  55  -6  56  -6  57  -6  58  -6  59  -6  60  -6
M  CHG  8  61  -6  62  -6  63  -6  64  -6  65  -6  66  -6  67  -6  68  -6
M  CHG  8  69  -6  70  -6  71  -6  72  -6  73  -6  74  -6  75  -6  76  -6
M  CHG  8  77  -6  78  -6  79  -6  80  -6  81  -6  82  -6  83  -6  84  -6
M  CHG  8  85  -6  86  -6  87  -6  88  -6  89  -6  90  -6  91  -6  92  -6
M  CHG  8  93  -6  94  -6  95  -6  96  -6  97  -6  98  -6  99  -6 100  -6
M  CHG  8 101  -6 102  -6 103  -6 104  -6 105  -6 106  -6 107  -6 108  -6
M  END
