
 OpenBabel09262218153D

256 48  0  0  0  0  0  0  0  0999 V2000
    0.4677    0.4404    0.4065 Al  0  0  0  0  0 15  0  0  0  0  0  0
    2.3007    3.7675    2.3200 Al  0  0  0  0  0  0  0  0  0  0  0  0
    2.1070    2.2844    0.3521 Al  0  0  0  0  0 15  0  0  0  0  0  0
    1.9045    0.5859    2.1874 Al  0  0  0  0  0 15  0  0  0  0  0  0
    0.4677    0.4404    4.4544 Al  0  0  0  0  0 15  0  0  0  0  0  0
    2.3007    3.7675    6.3679 Al  0  0  0  0  0  0  0  0  0  0  0  0
    2.1070    2.2844    4.4000 Al  0  0  0  0  0 15  0  0  0  0  0  0
    1.9045    0.5859    6.2353 Al  0  0  0  0  0 15  0  0  0  0  0  0
    0.4677    0.4404    8.5023 Al  0  0  0  0  0 15  0  0  0  0  0  0
    2.3007    3.7675   10.4158 Al  0  0  0  0  0  0  0  0  0  0  0  0
    2.1070    2.2844    8.4479 Al  0  0  0  0  0 15  0  0  0  0  0  0
    1.9045    0.5859   10.2832 Al  0  0  0  0  0 15  0  0  0  0  0  0
    0.4677    0.4404   12.5502 Al  0  0  0  0  0 15  0  0  0  0  0  0
    2.3007    3.7675   14.4637 Al  0  0  0  0  0  0  0  0  0  0  0  0
    2.1070    2.2844   12.4958 Al  0  0  0  0  0 15  0  0  0  0  0  0
    1.9045    0.5859   14.3311 Al  0  0  0  0  0 15  0  0  0  0  0  0
    0.4677    4.4883    0.4065 Al  0  0  0  0  0 15  0  0  0  0  0  0
    2.3007    7.8154    2.3200 Al  0  0  0  0  0  0  0  0  0  0  0  0
    2.1070    6.3323    0.3521 Al  0  0  0  0  0 15  0  0  0  0  0  0
    1.9045    4.6338    2.1874 Al  0  0  0  0  0  0  0  0  0  0  0  0
    0.4677    4.4883    4.4544 Al  0  0  0  0  0 15  0  0  0  0  0  0
    2.3007    7.8154    6.3679 Al  0  0  0  0  0  0  0  0  0  0  0  0
    2.1070    6.3323    4.4000 Al  0  0  0  0  0 15  0  0  0  0  0  0
    1.9045    4.6338    6.2353 Al  0  0  0  0  0  0  0  0  0  0  0  0
    0.4677    4.4883    8.5023 Al  0  0  0  0  0 15  0  0  0  0  0  0
    2.3007    7.8154   10.4158 Al  0  0  0  0  0  0  0  0  0  0  0  0
    2.1070    6.3323    8.4479 Al  0  0  0  0  0 15  0  0  0  0  0  0
    1.9045    4.6338   10.2832 Al  0  0  0  0  0  0  0  0  0  0  0  0
    0.4677    4.4883   12.5502 Al  0  0  0  0  0 15  0  0  0  0  0  0
    2.3007    7.8154   14.4637 Al  0  0  0  0  0  0  0  0  0  0  0  0
    2.1070    6.3323   12.4958 Al  0  0  0  0  0 15  0  0  0  0  0  0
    1.9045    4.6338   14.3311 Al  0  0  0  0  0  0  0  0  0  0  0  0
    0.4677    8.5362    0.4065 Al  0  0  0  0  0 15  0  0  0  0  0  0
    2.3007   11.8633    2.3200 Al  0  0  0  0  0  0  0  0  0  0  0  0
    2.1070   10.3802    0.3521 Al  0  0  0  0  0 15  0  0  0  0  0  0
    1.9045    8.6817    2.1874 Al  0  0  0  0  0  0  0  0  0  0  0  0
    0.4677    8.5362    4.4544 Al  0  0  0  0  0 15  0  0  0  0  0  0
    2.3007   11.8633    6.3679 Al  0  0  0  0  0  0  0  0  0  0  0  0
    2.1070   10.3802    4.4000 Al  0  0  0  0  0 15  0  0  0  0  0  0
    1.9045    8.6817    6.2353 Al  0  0  0  0  0  0  0  0  0  0  0  0
    0.4677    8.5362    8.5023 Al  0  0  0  0  0 15  0  0  0  0  0  0
    2.3007   11.8633   10.4158 Al  0  0  0  0  0  0  0  0  0  0  0  0
    2.1070   10.3802    8.4479 Al  0  0  0  0  0 15  0  0  0  0  0  0
    1.9045    8.6817   10.2832 Al  0  0  0  0  0  0  0  0  0  0  0  0
    0.4677    8.5362   12.5502 Al  0  0  0  0  0 15  0  0  0  0  0  0
    2.3007   11.8633   14.4637 Al  0  0  0  0  0  0  0  0  0  0  0  0
    2.1070   10.3802   12.4958 Al  0  0  0  0  0 15  0  0  0  0  0  0
    1.9045    8.6817   14.3311 Al  0  0  0  0  0  0  0  0  0  0  0  0
    0.4677   12.5841    0.4065 Al  0  0  0  0  0 15  0  0  0  0  0  0
    2.3007   15.9112    2.3200 Al  0  0  0  0  0 15  0  0  0  0  0  0
    2.1070   14.4281    0.3521 Al  0  0  0  0  0 15  0  0  0  0  0  0
    1.9045   12.7296    2.1874 Al  0  0  0  0  0  0  0  0  0  0  0  0
    0.4677   12.5841    4.4544 Al  0  0  0  0  0 15  0  0  0  0  0  0
    2.3007   15.9112    6.3679 Al  0  0  0  0  0 15  0  0  0  0  0  0
    2.1070   14.4281    4.4000 Al  0  0  0  0  0 15  0  0  0  0  0  0
    1.9045   12.7296    6.2353 Al  0  0  0  0  0  0  0  0  0  0  0  0
    0.4677   12.5841    8.5023 Al  0  0  0  0  0 15  0  0  0  0  0  0
    2.3007   15.9112   10.4158 Al  0  0  0  0  0 15  0  0  0  0  0  0
    2.1070   14.4281    8.4479 Al  0  0  0  0  0 15  0  0  0  0  0  0
    1.9045   12.7296   10.2832 Al  0  0  0  0  0  0  0  0  0  0  0  0
    0.4677   12.5841   12.5502 Al  0  0  0  0  0 15  0  0  0  0  0  0
    2.3007   15.9112   14.4637 Al  0  0  0  0  0 15  0  0  0  0  0  0
    2.1070   14.4281   12.4958 Al  0  0  0  0  0 15  0  0  0  0  0  0
    1.9045   12.7296   14.3311 Al  0  0  0  0  0  0  0  0  0  0  0  0
    4.5156    0.4404    0.4065 Al  0  0  0  0  0 15  0  0  0  0  0  0
    6.3486    3.7675    2.3200 Al  0  0  0  0  0  0  0  0  0  0  0  0
    6.1549    2.2844    0.3521 Al  0  0  0  0  0 15  0  0  0  0  0  0
    5.9524    0.5859    2.1874 Al  0  0  0  0  0 15  0  0  0  0  0  0
    4.5156    0.4404    4.4544 Al  0  0  0  0  0 15  0  0  0  0  0  0
    6.3486    3.7675    6.3679 Al  0  0  0  0  0  0  0  0  0  0  0  0
    6.1549    2.2844    4.4000 Al  0  0  0  0  0 15  0  0  0  0  0  0
    5.9524    0.5859    6.2353 Al  0  0  0  0  0 15  0  0  0  0  0  0
    4.5156    0.4404    8.5023 Al  0  0  0  0  0 15  0  0  0  0  0  0
    6.3486    3.7675   10.4158 Al  0  0  0  0  0  0  0  0  0  0  0  0
    6.1549    2.2844    8.4479 Al  0  0  0  0  0 15  0  0  0  0  0  0
    5.9524    0.5859   10.2832 Al  0  0  0  0  0 15  0  0  0  0  0  0
    4.5156    0.4404   12.5502 Al  0  0  0  0  0 15  0  0  0  0  0  0
    6.3486    3.7675   14.4637 Al  0  0  0  0  0  0  0  0  0  0  0  0
    6.1549    2.2844   12.4958 Al  0  0  0  0  0 15  0  0  0  0  0  0
    5.9524    0.5859   14.3311 Al  0  0  0  0  0 15  0  0  0  0  0  0
    4.5156    4.4883    0.4065 Al  0  0  0  0  0 15  0  0  0  0  0  0
    6.3486    7.8154    2.3200 Al  0  0  0  0  0  0  0  0  0  0  0  0
    6.1549    6.3323    0.3521 Al  0  0  0  0  0 15  0  0  0  0  0  0
    5.9524    4.6338    2.1874 Al  0  0  0  0  0  0  0  0  0  0  0  0
    4.5156    4.4883    4.4544 Al  0  0  0  0  0 15  0  0  0  0  0  0
    6.3486    7.8154    6.3679 Al  0  0  0  0  0  0  0  0  0  0  0  0
    6.1549    6.3323    4.4000 Al  0  0  0  0  0 15  0  0  0  0  0  0
    5.9524    4.6338    6.2353 Al  0  0  0  0  0  0  0  0  0  0  0  0
    4.5156    4.4883    8.5023 Al  0  0  0  0  0 15  0  0  0  0  0  0
    6.3486    7.8154   10.4158 Al  0  0  0  0  0  0  0  0  0  0  0  0
    6.1549    6.3323    8.4479 Al  0  0  0  0  0 15  0  0  0  0  0  0
    5.9524    4.6338   10.2832 Al  0  0  0  0  0  0  0  0  0  0  0  0
    4.5156    4.4883   12.5502 Al  0  0  0  0  0 15  0  0  0  0  0  0
    6.3486    7.8154   14.4637 Al  0  0  0  0  0  0  0  0  0  0  0  0
    6.1549    6.3323   12.4958 Al  0  0  0  0  0 15  0  0  0  0  0  0
    5.9524    4.6338   14.3311 Al  0  0  0  0  0  0  0  0  0  0  0  0
    4.5156    8.5362    0.4065 Al  0  0  0  0  0 15  0  0  0  0  0  0
    6.3486   11.8633    2.3200 Al  0  0  0  0  0  0  0  0  0  0  0  0
    6.1549   10.3802    0.3521 Al  0  0  0  0  0 15  0  0  0  0  0  0
    5.9524    8.6817    2.1874 Al  0  0  0  0  0  0  0  0  0  0  0  0
    4.5156    8.5362    4.4544 Al  0  0  0  0  0 15  0  0  0  0  0  0
    6.3486   11.8633    6.3679 Al  0  0  0  0  0  0  0  0  0  0  0  0
    6.1549   10.3802    4.4000 Al  0  0  0  0  0 15  0  0  0  0  0  0
    5.9524    8.6817    6.2353 Al  0  0  0  0  0  0  0  0  0  0  0  0
    4.5156    8.5362    8.5023 Al  0  0  0  0  0 15  0  0  0  0  0  0
    6.3486   11.8633   10.4158 Al  0  0  0  0  0  0  0  0  0  0  0  0
    6.1549   10.3802    8.4479 Al  0  0  0  0  0 15  0  0  0  0  0  0
    5.9524    8.6817   10.2832 Al  0  0  0  0  0  0  0  0  0  0  0  0
    4.5156    8.5362   12.5502 Al  0  0  0  0  0 15  0  0  0  0  0  0
    6.3486   11.8633   14.4637 Al  0  0  0  0  0  0  0  0  0  0  0  0
    6.1549   10.3802   12.4958 Al  0  0  0  0  0 15  0  0  0  0  0  0
    5.9524    8.6817   14.3311 Al  0  0  0  0  0  0  0  0  0  0  0  0
    4.5156   12.5841    0.4065 Al  0  0  0  0  0 15  0  0  0  0  0  0
    6.3486   15.9112    2.3200 Al  0  0  0  0  0 15  0  0  0  0  0  0
    6.1549   14.4281    0.3521 Al  0  0  0  0  0 15  0  0  0  0  0  0
    5.9524   12.7296    2.1874 Al  0  0  0  0  0  0  0  0  0  0  0  0
    4.5156   12.5841    4.4544 Al  0  0  0  0  0 15  0  0  0  0  0  0
    6.3486   15.9112    6.3679 Al  0  0  0  0  0 15  0  0  0  0  0  0
    6.1549   14.4281    4.4000 Al  0  0  0  0  0 15  0  0  0  0  0  0
    5.9524   12.7296    6.2353 Al  0  0  0  0  0  0  0  0  0  0  0  0
    4.5156   12.5841    8.5023 Al  0  0  0  0  0 15  0  0  0  0  0  0
    6.3486   15.9112   10.4158 Al  0  0  0  0  0 15  0  0  0  0  0  0
    6.1549   14.4281    8.4479 Al  0  0  0  0  0 15  0  0  0  0  0  0
    5.9524   12.7296   10.2832 Al  0  0  0  0  0  0  0  0  0  0  0  0
    4.5156   12.5841   12.5502 Al  0  0  0  0  0 15  0  0  0  0  0  0
    6.3486   15.9112   14.4637 Al  0  0  0  0  0 15  0  0  0  0  0  0
    6.1549   14.4281   12.4958 Al  0  0  0  0  0 15  0  0  0  0  0  0
    5.9524   12.7296   14.3311 Al  0  0  0  0  0  0  0  0  0  0  0  0
    8.5635    0.4404    0.4065 Al  0  0  0  0  0 15  0  0  0  0  0  0
   10.3965    3.7675    2.3200 Al  0  0  0  0  0  0  0  0  0  0  0  0
   10.2028    2.2844    0.3521 Al  0  0  0  0  0 15  0  0  0  0  0  0
   10.0003    0.5859    2.1874 Al  0  0  0  0  0 15  0  0  0  0  0  0
    8.5635    0.4404    4.4544 Al  0  0  0  0  0 15  0  0  0  0  0  0
   10.3965    3.7675    6.3679 Al  0  0  0  0  0  0  0  0  0  0  0  0
   10.2028    2.2844    4.4000 Al  0  0  0  0  0 15  0  0  0  0  0  0
   10.0003    0.5859    6.2353 Al  0  0  0  0  0 15  0  0  0  0  0  0
    8.5635    0.4404    8.5023 Al  0  0  0  0  0 15  0  0  0  0  0  0
   10.3965    3.7675   10.4158 Al  0  0  0  0  0  0  0  0  0  0  0  0
   10.2028    2.2844    8.4479 Al  0  0  0  0  0 15  0  0  0  0  0  0
   10.0003    0.5859   10.2832 Al  0  0  0  0  0 15  0  0  0  0  0  0
    8.5635    0.4404   12.5502 Al  0  0  0  0  0 15  0  0  0  0  0  0
   10.3965    3.7675   14.4637 Al  0  0  0  0  0  0  0  0  0  0  0  0
   10.2028    2.2844   12.4958 Al  0  0  0  0  0 15  0  0  0  0  0  0
   10.0003    0.5859   14.3311 Al  0  0  0  0  0 15  0  0  0  0  0  0
    8.5635    4.4883    0.4065 Al  0  0  0  0  0 15  0  0  0  0  0  0
   10.3965    7.8154    2.3200 Al  0  0  0  0  0  0  0  0  0  0  0  0
   10.2028    6.3323    0.3521 Al  0  0  0  0  0 15  0  0  0  0  0  0
   10.0003    4.6338    2.1874 Al  0  0  0  0  0  0  0  0  0  0  0  0
    8.5635    4.4883    4.4544 Al  0  0  0  0  0 15  0  0  0  0  0  0
   10.3965    7.8154    6.3679 Al  0  0  0  0  0  0  0  0  0  0  0  0
   10.2028    6.3323    4.4000 Al  0  0  0  0  0 15  0  0  0  0  0  0
   10.0003    4.6338    6.2353 Al  0  0  0  0  0  0  0  0  0  0  0  0
    8.5635    4.4883    8.5023 Al  0  0  0  0  0 15  0  0  0  0  0  0
   10.3965    7.8154   10.4158 Al  0  0  0  0  0  0  0  0  0  0  0  0
   10.2028    6.3323    8.4479 Al  0  0  0  0  0 15  0  0  0  0  0  0
   10.0003    4.6338   10.2832 Al  0  0  0  0  0  0  0  0  0  0  0  0
    8.5635    4.4883   12.5502 Al  0  0  0  0  0 15  0  0  0  0  0  0
   10.3965    7.8154   14.4637 Al  0  0  0  0  0  0  0  0  0  0  0  0
   10.2028    6.3323   12.4958 Al  0  0  0  0  0 15  0  0  0  0  0  0
   10.0003    4.6338   14.3311 Al  0  0  0  0  0  0  0  0  0  0  0  0
    8.5635    8.5362    0.4065 Al  0  0  0  0  0 15  0  0  0  0  0  0
   10.3965   11.8633    2.3200 Al  0  0  0  0  0  0  0  0  0  0  0  0
   10.2028   10.3802    0.3521 Al  0  0  0  0  0 15  0  0  0  0  0  0
   10.0003    8.6817    2.1874 Al  0  0  0  0  0  0  0  0  0  0  0  0
    8.5635    8.5362    4.4544 Al  0  0  0  0  0 15  0  0  0  0  0  0
   10.3965   11.8633    6.3679 Al  0  0  0  0  0  0  0  0  0  0  0  0
   10.2028   10.3802    4.4000 Al  0  0  0  0  0 15  0  0  0  0  0  0
   10.0003    8.6817    6.2353 Al  0  0  0  0  0  0  0  0  0  0  0  0
    8.5635    8.5362    8.5023 Al  0  0  0  0  0 15  0  0  0  0  0  0
   10.3965   11.8633   10.4158 Al  0  0  0  0  0  0  0  0  0  0  0  0
   10.2028   10.3802    8.4479 Al  0  0  0  0  0 15  0  0  0  0  0  0
   10.0003    8.6817   10.2832 Al  0  0  0  0  0  0  0  0  0  0  0  0
    8.5635    8.5362   12.5502 Al  0  0  0  0  0 15  0  0  0  0  0  0
   10.3965   11.8633   14.4637 Al  0  0  0  0  0  0  0  0  0  0  0  0
   10.2028   10.3802   12.4958 Al  0  0  0  0  0 15  0  0  0  0  0  0
   10.0003    8.6817   14.3311 Al  0  0  0  0  0  0  0  0  0  0  0  0
    8.5635   12.5841    0.4065 Al  0  0  0  0  0 15  0  0  0  0  0  0
   10.3965   15.9112    2.3200 Al  0  0  0  0  0 15  0  0  0  0  0  0
   10.2028   14.4281    0.3521 Al  0  0  0  0  0 15  0  0  0  0  0  0
   10.0003   12.7296    2.1874 Al  0  0  0  0  0  0  0  0  0  0  0  0
    8.5635   12.5841    4.4544 Al  0  0  0  0  0 15  0  0  0  0  0  0
   10.3965   15.9112    6.3679 Al  0  0  0  0  0 15  0  0  0  0  0  0
   10.2028   14.4281    4.4000 Al  0  0  0  0  0 15  0  0  0  0  0  0
   10.0003   12.7296    6.2353 Al  0  0  0  0  0  0  0  0  0  0  0  0
    8.5635   12.5841    8.5023 Al  0  0  0  0  0 15  0  0  0  0  0  0
   10.3965   15.9112   10.4158 Al  0  0  0  0  0 15  0  0  0  0  0  0
   10.2028   14.4281    8.4479 Al  0  0  0  0  0 15  0  0  0  0  0  0
   10.0003   12.7296   10.2832 Al  0  0  0  0  0  0  0  0  0  0  0  0
    8.5635   12.5841   12.5502 Al  0  0  0  0  0 15  0  0  0  0  0  0
   10.3965   15.9112   14.4637 Al  0  0  0  0  0 15  0  0  0  0  0  0
   10.2028   14.4281   12.4958 Al  0  0  0  0  0 15  0  0  0  0  0  0
   10.0003   12.7296   14.3311 Al  0  0  0  0  0  0  0  0  0  0  0  0
   12.6114    0.4404    0.4065 Al  0  0  0  0  0 15  0  0  0  0  0  0
   14.4444    3.7675    2.3200 Al  0  0  0  0  0  0  0  0  0  0  0  0
   14.2507    2.2844    0.3521 Al  0  0  0  0  0 15  0  0  0  0  0  0
   14.0482    0.5859    2.1874 Al  0  0  0  0  0 15  0  0  0  0  0  0
   12.6114    0.4404    4.4544 Al  0  0  0  0  0 15  0  0  0  0  0  0
   14.4444    3.7675    6.3679 Al  0  0  0  0  0  0  0  0  0  0  0  0
   14.2507    2.2844    4.4000 Al  0  0  0  0  0 15  0  0  0  0  0  0
   14.0482    0.5859    6.2353 Al  0  0  0  0  0 15  0  0  0  0  0  0
   12.6114    0.4404    8.5023 Al  0  0  0  0  0 15  0  0  0  0  0  0
   14.4444    3.7675   10.4158 Al  0  0  0  0  0  0  0  0  0  0  0  0
   14.2507    2.2844    8.4479 Al  0  0  0  0  0 15  0  0  0  0  0  0
   14.0482    0.5859   10.2832 Al  0  0  0  0  0 15  0  0  0  0  0  0
   12.6114    0.4404   12.5502 Al  0  0  0  0  0 15  0  0  0  0  0  0
   14.4444    3.7675   14.4637 Al  0  0  0  0  0  0  0  0  0  0  0  0
   14.2507    2.2844   12.4958 Al  0  0  0  0  0 15  0  0  0  0  0  0
   14.0482    0.5859   14.3311 Al  0  0  0  0  0 15  0  0  0  0  0  0
   12.6114    4.4883    0.4065 Al  0  0  0  0  0 15  0  0  0  0  0  0
   14.4444    7.8154    2.3200 Al  0  0  0  0  0  0  0  0  0  0  0  0
   14.2507    6.3323    0.3521 Al  0  0  0  0  0 15  0  0  0  0  0  0
   14.0482    4.6338    2.1874 Al  0  0  0  0  0  0  0  0  0  0  0  0
   12.6114    4.4883    4.4544 Al  0  0  0  0  0 15  0  0  0  0  0  0
   14.4444    7.8154    6.3679 Al  0  0  0  0  0  0  0  0  0  0  0  0
   14.2507    6.3323    4.4000 Al  0  0  0  0  0 15  0  0  0  0  0  0
   14.0482    4.6338    6.2353 Al  0  0  0  0  0  0  0  0  0  0  0  0
   12.6114    4.4883    8.5023 Al  0  0  0  0  0 15  0  0  0  0  0  0
   14.4444    7.8154   10.4158 Al  0  0  0  0  0  0  0  0  0  0  0  0
   14.2507    6.3323    8.4479 Al  0  0  0  0  0 15  0  0  0  0  0  0
   14.0482    4.6338   10.2832 Al  0  0  0  0  0  0  0  0  0  0  0  0
   12.6114    4.4883   12.5502 Al  0  0  0  0  0 15  0  0  0  0  0  0
   14.4444    7.8154   14.4637 Al  0  0  0  0  0  0  0  0  0  0  0  0
   14.2507    6.3323   12.4958 Al  0  0  0  0  0 15  0  0  0  0  0  0
   14.0482    4.6338   14.3311 Al  0  0  0  0  0  0  0  0  0  0  0  0
   12.6114    8.5362    0.4065 Al  0  0  0  0  0 15  0  0  0  0  0  0
   14.4444   11.8633    2.3200 Al  0  0  0  0  0  0  0  0  0  0  0  0
   14.2507   10.3802    0.3521 Al  0  0  0  0  0 15  0  0  0  0  0  0
   14.0482    8.6817    2.1874 Al  0  0  0  0  0  0  0  0  0  0  0  0
   12.6114    8.5362    4.4544 Al  0  0  0  0  0 15  0  0  0  0  0  0
   14.4444   11.8633    6.3679 Al  0  0  0  0  0  0  0  0  0  0  0  0
   14.2507   10.3802    4.4000 Al  0  0  0  0  0 15  0  0  0  0  0  0
   14.0482    8.6817    6.2353 Al  0  0  0  0  0  0  0  0  0  0  0  0
   12.6114    8.5362    8.5023 Al  0  0  0  0  0 15  0  0  0  0  0  0
   14.4444   11.8633   10.4158 Al  0  0  0  0  0  0  0  0  0  0  0  0
   14.2507   10.3802    8.4479 Al  0  0  0  0  0 15  0  0  0  0  0  0
   14.0482    8.6817   10.2832 Al  0  0  0  0  0  0  0  0  0  0  0  0
   12.6114    8.5362   12.5502 Al  0  0  0  0  0 15  0  0  0  0  0  0
   14.4444   11.8633   14.4637 Al  0  0  0  0  0  0  0  0  0  0  0  0
   14.2507   10.3802   12.4958 Al  0  0  0  0  0 15  0  0  0  0  0  0
   14.0482    8.6817   14.3311 Al  0  0  0  0  0  0  0  0  0  0  0  0
   12.6114   12.5841    0.4065 Al  0  0  0  0  0 15  0  0  0  0  0  0
   14.4444   15.9112    2.3200 Al  0  0  0  0  0 15  0  0  0  0  0  0
   14.2507   14.4281    0.3521 Al  0  0  0  0  0 15  0  0  0  0  0  0
   14.0482   12.7296    2.1874 Al  0  0  0  0  0  0  0  0  0  0  0  0
   12.6114   12.5841    4.4544 Al  0  0  0  0  0 15  0  0  0  0  0  0
   14.4444   15.9112    6.3679 Al  0  0  0  0  0 15  0  0  0  0  0  0
   14.2507   14.4281    4.4000 Al  0  0  0  0  0 15  0  0  0  0  0  0
   14.0482   12.7296    6.2353 Al  0  0  0  0  0  0  0  0  0  0  0  0
   12.6114   12.5841    8.5023 Al  0  0  0  0  0 15  0  0  0  0  0  0
   14.4444   15.9112   10.4158 Al  0  0  0  0  0 15  0  0  0  0  0  0
   14.2507   14.4281    8.4479 Al  0  0  0  0  0 15  0  0  0  0  0  0
   14.0482   12.7296   10.2832 Al  0  0  0  0  0  0  0  0  0  0  0  0
   12.6114   12.5841   12.5502 Al  0  0  0  0  0 15  0  0  0  0  0  0
   14.4444   15.9112   14.4637 Al  0  0  0  0  0 15  0  0  0  0  0  0
   14.2507   14.4281   12.4958 Al  0  0  0  0  0 15  0  0  0  0  0  0
   14.0482   12.7296   14.3311 Al  0  0  0  0  0  0  0  0  0  0  0  0
  2 20  1  0  0  0  0
  6 24  1  0  0  0  0
 10 28  1  0  0  0  0
 14 32  1  0  0  0  0
 18 36  1  0  0  0  0
 22 40  1  0  0  0  0
 26 44  1  0  0  0  0
 30 48  1  0  0  0  0
 34 52  1  0  0  0  0
 38 56  1  0  0  0  0
 42 60  1  0  0  0  0
 46 64  1  0  0  0  0
 66 84  1  0  0  0  0
 70 88  1  0  0  0  0
 74 92  1  0  0  0  0
 78 96  1  0  0  0  0
 82100  1  0  0  0  0
 86104  1  0  0  0  0
 90108  1  0  0  0  0
 94112  1  0  0  0  0
 98116  1  0  0  0  0
102120  1  0  0  0  0
106124  1  0  0  0  0
110128  1  0  0  0  0
130148  1  0  0  0  0
134152  1  0  0  0  0
138156  1  0  0  0  0
142160  1  0  0  0  0
146164  1  0  0  0  0
150168  1  0  0  0  0
154172  1  0  0  0  0
158176  1  0  0  0  0
162180  1  0  0  0  0
166184  1  0  0  0  0
170188  1  0  0  0  0
174192  1  0  0  0  0
194212  1  0  0  0  0
198216  1  0  0  0  0
202220  1  0  0  0  0
206224  1  0  0  0  0
210228  1  0  0  0  0
214232  1  0  0  0  0
218236  1  0  0  0  0
222240  1  0  0  0  0
226244  1  0  0  0  0
230248  1  0  0  0  0
234252  1  0  0  0  0
238256  1  0  0  0  0
M  CHG  8   5  -5   6  -5   7  -5   8  -5   9  -5  10  -5  11  -5  12  -5
M  CHG  8  13  -5  14  -5  15  -5  16  -5  17  -5  18  -5  19  -5  20  -5
M  CHG  8  21  -5  22  -5  23  -5  24  -5  25  -5  26  -5  27  -5  28  -5
M  CHG  8  29  -5  30  -5  31  -5  32  -5  33  -5  34  -5  35  -5  36  -5
M  CHG  8  37  -5  38  -5  39  -5  40  -5  41  -5  42  -5  43  -5  44  -5
M  CHG  8  45  -5  46  -5  47  -5  48  -5  49  -5  50  -5  51  -5  52  -5
M  CHG  8  53  -5  54  -5  55  -5  56  -5  57  -5  58  -5  59  -5  60  -5
M  CHG  8  61  -5  62  -5  63  -5  64  -5  65  -5  66  -5  67  -5  68  -5
M  CHG  8  69  -5  70  -5  71  -5  72  -5  73  -5  74  -5  75  -5  76  -5
M  CHG  8  77  -5  78  -5  79  -5  80  -5  81  -5  82  -5  83  -5  84  -5
M  CHG  8  85  -5  86  -5  87  -5  88  -5  89  -5  90  -5  91  -5  92  -5
M  CHG  8  93  -5  94  -5  95  -5  96  -5  97  -5  98  -5  99  -5 100  -5
M  CHG  8 101  -5 102  -5 103  -5 104  -5 105  -5 106  -5 107  -5 108  -5
M  CHG  8 109  -5 110  -5 111  -5 112  -5 113  -5 114  -5 115  -5 116  -5
M  CHG  8 117  -5 118  -5 119  -5 120  -5 121  -5 122  -5 123  -5 124  -5
M  CHG  8 125  -5 126  -5 127  -5 128  -5 129  -5 130  -5 131  -5 132  -5
M  CHG  8 133  -5 134  -5 135  -5 136  -5 137  -5 138  -5 139  -5 140  -5
M  CHG  8 141  -5 142  -5 143  -5 144  -5 145  -5 146  -5 147  -5 148  -5
M  CHG  8 149  -5 150  -5 151  -5 152  -5 153  -5 154  -5 155  -5 156  -5
M  CHG  8 157  -5 158  -5 159  -5 160  -5 161  -5 162  -5 163  -5 164  -5
M  CHG  8 165  -5 166  -5 167  -5 168  -5 169  -5 170  -5 171  -5 172  -5
M  CHG  8 173  -5 174  -5 175  -5 176  -5 177  -5 178  -5 179  -5 180  -5
M  CHG  8 181  -5 182  -5 183  -5 184  -5 185  -5 186  -5 187  -5 188  -5
M  CHG  8 189  -5 190  -5 191  -5 192  -5 193  -5 194  -5 195  -5 196  -5
M  CHG  8 197  -5 198  -5 199  -5 200  -5 201  -5 202  -5 203  -5 204  -5
M  CHG  8 205  -5 206  -5 207  -5 208  -5 209  -5 210  -5 211  -5 212  -5
M  CHG  8 213  -5 214  -5 215  -5 216  -5 217  -5 218  -5 219  -5 220  -5
M  CHG  8 221  -5 222  -5 223  -5 224  -5 225  -5 226  -5 227  -5 228  -5
M  CHG  8 229  -5 230  -5 231  -5 232  -5 233  -5 234  -5 235  -5 236  -5
M  CHG  8 237  -5 238  -5 239  -5 240  -5 241  -5 242  -5 243  -5 244  -5
M  CHG  8 245  -5 246  -5 247  -5 248  -5 249  -5 250  -5 251  -5 252  -5
M  CHG  4 253  -5 254  -5 255  -5 256  -5
M  END
