
 OpenBabel10052215503D

256  0  0  0  0  0  0  0  0  0999 V2000
    0.6825    0.4762    0.7450 Pb  0  0  0  0  0 15  0  0  0  0  0  0
    2.9693    0.6428    2.4156 Pb  0  0  0  0  0 15  0  0  0  0  0  0
    2.3759    2.8863    0.4546 Pb  0  0  0  0  0 15  0  0  0  0  0  0
    0.6165    3.5006    1.9328 Pb  0  0  0  0  0 15  0  0  0  0  0  0
    0.6825    0.4762    5.6958 Pb  0  0  0  0  0 15  0  0  0  0  0  0
    2.9693    0.6428    7.3664 Pb  0  0  0  0  0 15  0  0  0  0  0  0
    2.3759    2.8863    5.4054 Pb  0  0  0  0  0 15  0  0  0  0  0  0
    0.6165    3.5006    6.8836 Pb  0  0  0  0  0 15  0  0  0  0  0  0
    0.6825    0.4762   10.6466 Hf  0  0  0  0  0 15  0  0  0  0  0  0
    2.9693    0.6428   12.3172 Er  0  0  0  0  0 15  0  0  0  0  0  0
    2.3759    2.8863   10.3562 Pb  0  0  0  0  0 15  0  0  0  0  0  0
    0.6165    3.5006   11.8344 Pb  0  0  0  0  0 15  0  0  0  0  0  0
    0.6825    0.4762   15.5974 Cs  0  0  0  0  0 15  0  0  0  0  0  0
    2.9591    0.5972   17.2620 Yb  0  0  0  0  0 15  0  0  0  0  0  0
    2.3759    2.8863   15.3070 Pb  0  0  0  0  0 15  0  0  0  0  0  0
    0.6165    3.5006   16.7852 Pb  0  0  0  0  0 15  0  0  0  0  0  0
    0.6825    5.4270    0.7450 Ir  0  0  0  0  0 15  0  0  0  0  0  0
    2.9693    5.5936    2.4156 Pb  0  0  0  0  0 15  0  0  0  0  0  0
    2.3759    7.8371    0.4546 Ru  0  0  0  0  0 15  0  0  0  0  0  0
    0.6165    8.4514    1.9328 Pb  0  0  0  0  0 15  0  0  0  0  0  0
    0.6825    5.4270    5.6958 Pb  0  0  0  0  0 15  0  0  0  0  0  0
    2.9693    5.5936    7.3664 Pb  0  0  0  0  0 15  0  0  0  0  0  0
    2.3759    7.8371    5.4054 Pb  0  0  0  0  0 15  0  0  0  0  0  0
    0.6165    8.4514    6.8836 Pb  0  0  0  0  0 15  0  0  0  0  0  0
    0.6825    5.4270   10.6466 Hg  0  0  0  0  0 15  0  0  0  0  0  0
    2.9693    5.5936   12.3172 Cd  0  0  0  0  0 15  0  0  0  0  0  0
    2.3759    7.8371   10.3562 Se  0  0  0  0  0  0  0  0  0  0  0  0
    0.6165    8.4514   11.8344 Ag  0  0  0  0  0 15  0  0  0  0  0  0
    0.6825    5.4270   15.5974 U   0  0  0  0  0 15  0  0  0  0  0  0
    2.9693    5.5936   17.2680 Be  0  0  0  0  0 15  0  0  0  0  0  0
    2.3759    7.8371   15.3070 Ho  0  0  0  0  0 15  0  0  0  0  0  0
    0.6165    8.4514   16.7852 W   0  0  0  0  0 15  0  0  0  0  0  0
    0.6825   10.3778    0.7450 Rh  0  0  0  0  0 15  0  0  0  0  0  0
    2.9693   10.5444    2.4156 Pb  0  0  0  0  0 15  0  0  0  0  0  0
    2.3759   12.7879    0.4546 Re  0  0  0  0  0 15  0  0  0  0  0  0
    0.6165   13.4022    1.9328 Pb  0  0  0  0  0 15  0  0  0  0  0  0
    0.6825   10.3778    5.6958 Pb  0  0  0  0  0 15  0  0  0  0  0  0
    2.9693   10.5444    7.3664 Pb  0  0  0  0  0 15  0  0  0  0  0  0
    2.3759   12.7879    5.4054 Pb  0  0  0  0  0 15  0  0  0  0  0  0
    0.6165   13.4022    6.8836 Pb  0  0  0  0  0 15  0  0  0  0  0  0
    0.6825   10.3778   10.6466 Bi  0  0  0  0  0 15  0  0  0  0  0  0
    2.9693   10.5444   12.3172 Pd  0  0  0  0  0 15  0  0  0  0  0  0
    2.3759   12.7879   10.3562 Au  0  0  0  0  0 15  0  0  0  0  0  0
    0.6165   13.4022   11.8344 Pt  0  0  0  0  0 15  0  0  0  0  0  0
    0.6825   10.3778   15.5974 Tb  0  0  0  0  0 15  0  0  0  0  0  0
    2.9693   10.5444   17.2680 Mo  0  0  0  0  0 15  0  0  0  0  0  0
    2.3759   12.7879   15.3070 Lu  0  0  0  0  0 15  0  0  0  0  0  0
    0.6165   13.4022   16.7852 Tl  0  0  0  0  0 15  0  0  0  0  0  0
    0.6825   15.3286    0.7450 Pb  0  0  0  0  0 15  0  0  0  0  0  0
    2.9693   15.4952    2.4156 Pb  0  0  0  0  0 15  0  0  0  0  0  0
    2.3759   17.7387    0.4546 Pb  0  0  0  0  0 15  0  0  0  0  0  0
    0.6165   18.3530    1.9328 Pb  0  0  0  0  0 15  0  0  0  0  0  0
    0.6825   15.3286    5.6958 Pb  0  0  0  0  0 15  0  0  0  0  0  0
    2.9693   15.4952    7.3664 Pb  0  0  0  0  0 15  0  0  0  0  0  0
    2.3759   17.7387    5.4054 Pb  0  0  0  0  0 15  0  0  0  0  0  0
    0.6165   18.3530    6.8836 Pb  0  0  0  0  0 15  0  0  0  0  0  0
    0.6825   15.3286   10.6466 Te  0  0  0  0  0  0  0  0  0  0  0  0
    2.9693   15.4952   12.3172 Os  0  0  0  0  0 15  0  0  0  0  0  0
    2.3759   17.7387   10.3562 Pb  0  0  0  0  0 15  0  0  0  0  0  0
    0.6165   18.3530   11.8344 Pb  0  0  0  0  0 15  0  0  0  0  0  0
    0.6825   15.3286   15.5974 I   0  0  0  0  0  0  0  0  0  0  0  0
    2.9693   15.4952   17.2680 Tm  0  0  0  0  0 15  0  0  0  0  0  0
    2.3759   17.7387   15.3070 Sb  0  0  0  0  0  0  0  0  0  0  0  0
    0.6165   18.3530   16.7852 In  0  0  0  0  0 15  0  0  0  0  0  0
    5.6333    0.4762    0.7450 Pb  0  0  0  0  0 15  0  0  0  0  0  0
    7.9201    0.6428    2.4156 Pb  0  0  0  0  0 15  0  0  0  0  0  0
    7.3267    2.8863    0.4546 Pb  0  0  0  0  0 15  0  0  0  0  0  0
    5.5673    3.5006    1.9328 Pb  0  0  0  0  0 15  0  0  0  0  0  0
    5.6333    0.4762    5.6958 Pb  0  0  0  0  0 15  0  0  0  0  0  0
    7.9201    0.6428    7.3664 Pb  0  0  0  0  0 15  0  0  0  0  0  0
    7.3267    2.8863    5.4054 Pb  0  0  0  0  0 15  0  0  0  0  0  0
    5.5673    3.5006    6.8836 Pb  0  0  0  0  0 15  0  0  0  0  0  0
    5.6333    0.4762   10.6466 Dy  0  0  0  0  0 15  0  0  0  0  0  0
    7.9201    0.6428   12.3172 Gd  0  0  0  0  0 15  0  0  0  0  0  0
    7.3267    2.8863   10.3562 Pb  0  0  0  0  0 15  0  0  0  0  0  0
    5.5673    3.5006   11.8344 Pb  0  0  0  0  0 15  0  0  0  0  0  0
    5.6333    0.4762   15.5974 Dy  0  0  0  0  0 15  0  0  0  0  0  0
    7.9201    0.6428   17.2680 Gd  0  0  0  0  0 15  0  0  0  0  0  0
    7.3267    2.8863   15.3070 Pb  0  0  0  0  0 15  0  0  0  0  0  0
    5.5673    3.5006   16.7852 Pb  0  0  0  0  0 15  0  0  0  0  0  0
    5.6333    5.4270    0.7450 Pb  0  0  0  0  0 15  0  0  0  0  0  0
    7.9201    5.5936    2.4156 Pb  0  0  0  0  0 15  0  0  0  0  0  0
    7.3267    7.8371    0.4546 Pb  0  0  0  0  0 15  0  0  0  0  0  0
    5.5673    8.4514    1.9328 Pb  0  0  0  0  0 15  0  0  0  0  0  0
    5.6333    5.4270    5.6958 Pb  0  0  0  0  0 15  0  0  0  0  0  0
    7.9201    5.5936    7.3664 Pb  0  0  0  0  0 15  0  0  0  0  0  0
    7.3267    7.8371    5.4054 Pb  0  0  0  0  0 15  0  0  0  0  0  0
    5.5673    8.4514    6.8836 Pb  0  0  0  0  0 15  0  0  0  0  0  0
    5.6333    5.4270   10.6466 Pb  0  0  0  0  0 15  0  0  0  0  0  0
    7.9201    5.5936   12.3172 Pb  0  0  0  0  0 15  0  0  0  0  0  0
    7.3267    7.8371   10.3562 Pb  0  0  0  0  0 15  0  0  0  0  0  0
    5.5673    8.4514   11.8344 Pb  0  0  0  0  0 15  0  0  0  0  0  0
    5.6333    5.4270   15.5974 Pb  0  0  0  0  0 15  0  0  0  0  0  0
    7.9201    5.5936   17.2680 Pb  0  0  0  0  0 15  0  0  0  0  0  0
    7.3267    7.8371   15.3070 Pb  0  0  0  0  0 15  0  0  0  0  0  0
    5.5673    8.4514   16.7852 Pb  0  0  0  0  0 15  0  0  0  0  0  0
    5.6333   10.3778    0.7450 Pb  0  0  0  0  0 15  0  0  0  0  0  0
    7.9201   10.5444    2.4156 Pb  0  0  0  0  0 15  0  0  0  0  0  0
    7.3267   12.7879    0.4546 Pb  0  0  0  0  0 15  0  0  0  0  0  0
    5.5673   13.4022    1.9328 Pb  0  0  0  0  0 15  0  0  0  0  0  0
    5.6333   10.3778    5.6958 Pb  0  0  0  0  0 15  0  0  0  0  0  0
    7.9201   10.5444    7.3664 Pb  0  0  0  0  0 15  0  0  0  0  0  0
    7.3267   12.7879    5.4054 Pb  0  0  0  0  0 15  0  0  0  0  0  0
    5.5673   13.4022    6.8836 Pb  0  0  0  0  0 15  0  0  0  0  0  0
    5.6333   10.3778   10.6466 Pb  0  0  0  0  0 15  0  0  0  0  0  0
    7.9201   10.5444   12.3172 Pb  0  0  0  0  0 15  0  0  0  0  0  0
    7.3267   12.7879   10.3562 Pb  0  0  0  0  0 15  0  0  0  0  0  0
    5.5673   13.4022   11.8344 Pb  0  0  0  0  0 15  0  0  0  0  0  0
    5.6333   10.3778   15.5974 Pb  0  0  0  0  0 15  0  0  0  0  0  0
    7.9201   10.5444   17.2680 Pb  0  0  0  0  0 15  0  0  0  0  0  0
    7.3267   12.7879   15.3070 Pb  0  0  0  0  0 15  0  0  0  0  0  0
    5.5673   13.4022   16.7852 Pb  0  0  0  0  0 15  0  0  0  0  0  0
    5.6333   15.3286    0.7450 Pb  0  0  0  0  0 15  0  0  0  0  0  0
    7.9201   15.4952    2.4156 Pb  0  0  0  0  0 15  0  0  0  0  0  0
    7.3267   17.7387    0.4546 Pb  0  0  0  0  0 15  0  0  0  0  0  0
    5.5673   18.3530    1.9328 Pb  0  0  0  0  0 15  0  0  0  0  0  0
    5.6333   15.3286    5.6958 Pb  0  0  0  0  0 15  0  0  0  0  0  0
    7.9201   15.4952    7.3664 Pb  0  0  0  0  0 15  0  0  0  0  0  0
    7.3267   17.7387    5.4054 Pb  0  0  0  0  0 15  0  0  0  0  0  0
    5.5673   18.3530    6.8836 Pb  0  0  0  0  0 15  0  0  0  0  0  0
    5.6333   15.3286   10.6466 Pb  0  0  0  0  0 15  0  0  0  0  0  0
    7.9201   15.4952   12.3172 Pb  0  0  0  0  0 15  0  0  0  0  0  0
    7.3267   17.7387   10.3562 Pb  0  0  0  0  0 15  0  0  0  0  0  0
    5.5673   18.3530   11.8344 Pb  0  0  0  0  0 15  0  0  0  0  0  0
    5.6333   15.3286   15.5974 Pb  0  0  0  0  0 15  0  0  0  0  0  0
    7.9201   15.4952   17.2680 Pb  0  0  0  0  0 15  0  0  0  0  0  0
    7.3267   17.7387   15.3070 Pb  0  0  0  0  0 15  0  0  0  0  0  0
    5.5673   18.3530   16.7852 Pb  0  0  0  0  0 15  0  0  0  0  0  0
   10.5841    0.4762    0.7450 Pb  0  0  0  0  0 15  0  0  0  0  0  0
   12.8709    0.6428    2.4156 Pb  0  0  0  0  0 15  0  0  0  0  0  0
   12.2775    2.8863    0.4546 Pb  0  0  0  0  0 15  0  0  0  0  0  0
   10.5181    3.5006    1.9328 Pb  0  0  0  0  0 15  0  0  0  0  0  0
   10.5841    0.4762    5.6958 Pb  0  0  0  0  0 15  0  0  0  0  0  0
   12.8709    0.6428    7.3664 Pb  0  0  0  0  0 15  0  0  0  0  0  0
   12.2775    2.8863    5.4054 Pb  0  0  0  0  0 15  0  0  0  0  0  0
   10.5181    3.5006    6.8836 Pb  0  0  0  0  0 15  0  0  0  0  0  0
   10.5841    0.4762   10.6466 Sm  0  0  0  0  0 15  0  0  0  0  0  0
   12.8709    0.6428   12.3172 Pr  0  0  0  0  0 15  0  0  0  0  0  0
   12.2775    2.8863   10.3562 Pb  0  0  0  0  0 15  0  0  0  0  0  0
   10.5181    3.5006   11.8344 Pb  0  0  0  0  0 15  0  0  0  0  0  0
   10.5841    0.4762   15.5974 Sm  0  0  0  0  0 15  0  0  0  0  0  0
   12.8709    0.6428   17.2680 Pr  0  0  0  0  0 15  0  0  0  0  0  0
   12.2775    2.8863   15.3070 Pr  0  0  0  0  0 15  0  0  0  0  0  0
   10.5181    3.5006   16.7852 Pb  0  0  0  0  0 15  0  0  0  0  0  0
   10.5841    5.4270    0.7450 Pb  0  0  0  0  0 15  0  0  0  0  0  0
   12.8709    5.5936    2.4156 Pb  0  0  0  0  0 15  0  0  0  0  0  0
   12.2775    7.8371    0.4546 Pb  0  0  0  0  0 15  0  0  0  0  0  0
   10.5181    8.4514    1.9328 Pb  0  0  0  0  0 15  0  0  0  0  0  0
   10.5841    5.4270    5.6958 Pb  0  0  0  0  0 15  0  0  0  0  0  0
   12.8709    5.5936    7.3664 Pb  0  0  0  0  0 15  0  0  0  0  0  0
   12.2775    7.8371    5.4054 Pb  0  0  0  0  0 15  0  0  0  0  0  0
   10.5181    8.4514    6.8836 Pb  0  0  0  0  0 15  0  0  0  0  0  0
   10.5841    5.4270   10.6466 Pb  0  0  0  0  0 15  0  0  0  0  0  0
   12.8709    5.5936   12.3172 Pb  0  0  0  0  0 15  0  0  0  0  0  0
   12.2775    7.8371   10.3562 Pb  0  0  0  0  0 15  0  0  0  0  0  0
   10.5181    8.4514   11.8344 Pb  0  0  0  0  0 15  0  0  0  0  0  0
   10.5841    5.4270   15.5974 Pb  0  0  0  0  0 15  0  0  0  0  0  0
   12.8709    5.5936   17.2680 Pb  0  0  0  0  0 15  0  0  0  0  0  0
   12.2775    7.8371   15.3070 Pb  0  0  0  0  0 15  0  0  0  0  0  0
   10.5181    8.4514   16.7852 Pb  0  0  0  0  0 15  0  0  0  0  0  0
   10.5841   10.3778    0.7450 Pb  0  0  0  0  0 15  0  0  0  0  0  0
   12.8709   10.5444    2.4156 Pb  0  0  0  0  0 15  0  0  0  0  0  0
   12.2775   12.7879    0.4546 Pb  0  0  0  0  0 15  0  0  0  0  0  0
   10.5181   13.4022    1.9328 Pb  0  0  0  0  0 15  0  0  0  0  0  0
   10.5841   10.3778    5.6958 Pb  0  0  0  0  0 15  0  0  0  0  0  0
   12.8709   10.5444    7.3664 Pb  0  0  0  0  0 15  0  0  0  0  0  0
   12.2775   12.7879    5.4054 Pb  0  0  0  0  0 15  0  0  0  0  0  0
   10.5181   13.4022    6.8836 Pb  0  0  0  0  0 15  0  0  0  0  0  0
   10.5841   10.3778   10.6466 Pb  0  0  0  0  0 15  0  0  0  0  0  0
   12.8709   10.5444   12.3172 Pb  0  0  0  0  0 15  0  0  0  0  0  0
   12.2775   12.7879   10.3562 Pb  0  0  0  0  0 15  0  0  0  0  0  0
   10.5181   13.4022   11.8344 Pb  0  0  0  0  0 15  0  0  0  0  0  0
   10.5841   10.3778   15.5974 Pb  0  0  0  0  0 15  0  0  0  0  0  0
   12.8709   10.5444   17.2680 Pb  0  0  0  0  0 15  0  0  0  0  0  0
   12.2775   12.7879   15.3070 Pb  0  0  0  0  0 15  0  0  0  0  0  0
   10.5181   13.4022   16.7852 Pb  0  0  0  0  0 15  0  0  0  0  0  0
   10.5841   15.3286    0.7450 Pb  0  0  0  0  0 15  0  0  0  0  0  0
   12.8709   15.4952    2.4156 Pb  0  0  0  0  0 15  0  0  0  0  0  0
   12.2775   17.7387    0.4546 Pb  0  0  0  0  0 15  0  0  0  0  0  0
   10.5181   18.3530    1.9328 Pb  0  0  0  0  0 15  0  0  0  0  0  0
   10.5841   15.3286    5.6958 Pb  0  0  0  0  0 15  0  0  0  0  0  0
   12.8709   15.4952    7.3664 Pb  0  0  0  0  0 15  0  0  0  0  0  0
   12.2775   17.7387    5.4054 Pb  0  0  0  0  0 15  0  0  0  0  0  0
   10.5181   18.3530    6.8836 Pb  0  0  0  0  0 15  0  0  0  0  0  0
   10.5841   15.3286   10.6466 Pb  0  0  0  0  0 15  0  0  0  0  0  0
   12.8709   15.4952   12.3172 Pb  0  0  0  0  0 15  0  0  0  0  0  0
   12.2775   17.7387   10.3562 Pb  0  0  0  0  0 15  0  0  0  0  0  0
   10.5181   18.3530   11.8344 Pb  0  0  0  0  0 15  0  0  0  0  0  0
   10.5841   15.3286   15.5974 Pb  0  0  0  0  0 15  0  0  0  0  0  0
   12.8709   15.4952   17.2680 Pb  0  0  0  0  0 15  0  0  0  0  0  0
   12.2775   17.7387   15.3070 Pb  0  0  0  0  0 15  0  0  0  0  0  0
   10.5181   18.3530   16.7852 Pb  0  0  0  0  0 15  0  0  0  0  0  0
   15.5349    0.4762    0.7450 Th  0  0  0  0  0 15  0  0  0  0  0  0
   17.8217    0.6428    2.4156 B   0  0  0  0  0  0  0  0  0  0  0  0
   17.2283    2.8863    0.4546 Pb  0  0  0  0  0 15  0  0  0  0  0  0
   15.4689    3.5006    1.9328 Pb  0  0  0  0  0 15  0  0  0  0  0  0
   15.5349    0.4762    5.6958 Th  0  0  0  0  0 15  0  0  0  0  0  0
   17.8217    0.6428    7.3664 B   0  0  0  0  0  0  0  0  0  0  0  0
   17.2283    2.8863    5.4054 Pb  0  0  0  0  0 15  0  0  0  0  0  0
   15.4689    3.5006    6.8836 Pb  0  0  0  0  0 15  0  0  0  0  0  0
   15.5349    0.4762   10.6466 Th  0  0  0  0  0 15  0  0  0  0  0  0
   17.8217    0.6428   12.3172 B   0  0  0  0  0  0  0  0  0  0  0  0
   17.2283    2.8863   10.3562 Pb  0  0  0  0  0 15  0  0  0  0  0  0
   15.4689    3.5006   11.8344 Pb  0  0  0  0  0 15  0  0  0  0  0  0
   15.5349    0.4762   15.5974 Th  0  0  0  0  0 15  0  0  0  0  0  0
   17.8217    0.6428   17.2680 B   0  0  0  0  0  0  0  0  0  0  0  0
   17.2283    2.8863   15.3070 Pb  0  0  0  0  0 15  0  0  0  0  0  0
   15.4689    3.5006   16.7852 B   0  0  0  0  0  0  0  0  0  0  0  0
   15.5349    5.4270    0.7450 Pb  0  0  0  0  0 15  0  0  0  0  0  0
   17.8217    5.5936    2.4156 Pb  0  0  0  0  0 15  0  0  0  0  0  0
   17.2283    7.8371    0.4546 Pb  0  0  0  0  0 15  0  0  0  0  0  0
   15.4689    8.4514    1.9328 Pb  0  0  0  0  0 15  0  0  0  0  0  0
   15.5349    5.4270    5.6958 Pb  0  0  0  0  0 15  0  0  0  0  0  0
   17.8217    5.5936    7.3664 Pb  0  0  0  0  0 15  0  0  0  0  0  0
   17.2283    7.8371    5.4054 Pb  0  0  0  0  0 15  0  0  0  0  0  0
   15.4689    8.4514    6.8836 Pb  0  0  0  0  0 15  0  0  0  0  0  0
   15.5349    5.4270   10.6466 Pb  0  0  0  0  0 15  0  0  0  0  0  0
   17.8217    5.5936   12.3172 Pb  0  0  0  0  0 15  0  0  0  0  0  0
   17.2283    7.8371   10.3562 Pb  0  0  0  0  0 15  0  0  0  0  0  0
   15.4689    8.4514   11.8344 Pb  0  0  0  0  0 15  0  0  0  0  0  0
   15.5349    5.4270   15.5974 Pb  0  0  0  0  0 15  0  0  0  0  0  0
   17.8217    5.5936   17.2680 Pb  0  0  0  0  0 15  0  0  0  0  0  0
   17.2283    7.8371   15.3070 Pb  0  0  0  0  0 15  0  0  0  0  0  0
   15.4689    8.4514   16.7852 Pb  0  0  0  0  0 15  0  0  0  0  0  0
   15.5349   10.3778    0.7450 Pb  0  0  0  0  0 15  0  0  0  0  0  0
   17.8217   10.5444    2.4156 Pb  0  0  0  0  0 15  0  0  0  0  0  0
   17.2283   12.7879    0.4546 Pb  0  0  0  0  0 15  0  0  0  0  0  0
   15.4689   13.4022    1.9328 Pb  0  0  0  0  0 15  0  0  0  0  0  0
   15.5349   10.3778    5.6958 Pb  0  0  0  0  0 15  0  0  0  0  0  0
   17.8217   10.5444    7.3664 Pb  0  0  0  0  0 15  0  0  0  0  0  0
   17.2283   12.7879    5.4054 Pb  0  0  0  0  0 15  0  0  0  0  0  0
   15.4689   13.4022    6.8836 Pb  0  0  0  0  0 15  0  0  0  0  0  0
   15.5349   10.3778   10.6466 Pb  0  0  0  0  0 15  0  0  0  0  0  0
   17.8217   10.5444   12.3172 Pb  0  0  0  0  0 15  0  0  0  0  0  0
   17.2283   12.7879   10.3562 Pb  0  0  0  0  0 15  0  0  0  0  0  0
   15.4689   13.4022   11.8344 Pb  0  0  0  0  0 15  0  0  0  0  0  0
   15.5349   10.3778   15.5974 Pb  0  0  0  0  0 15  0  0  0  0  0  0
   17.8217   10.5444   17.2680 Pb  0  0  0  0  0 15  0  0  0  0  0  0
   17.2283   12.7879   15.3070 Pb  0  0  0  0  0 15  0  0  0  0  0  0
   15.4689   13.4022   16.7852 Pb  0  0  0  0  0 15  0  0  0  0  0  0
   15.5349   15.3286    0.7450 Pb  0  0  0  0  0 15  0  0  0  0  0  0
   17.8217   15.4952    2.4156 Pb  0  0  0  0  0 15  0  0  0  0  0  0
   17.2283   17.7387    0.4546 Pb  0  0  0  0  0 15  0  0  0  0  0  0
   15.4689   18.3530    1.9328 Pb  0  0  0  0  0 15  0  0  0  0  0  0
   15.5349   15.3286    5.6958 Pb  0  0  0  0  0 15  0  0  0  0  0  0
   17.8217   15.4952    7.3664 Pb  0  0  0  0  0 15  0  0  0  0  0  0
   17.2283   17.7387    5.4054 Pb  0  0  0  0  0 15  0  0  0  0  0  0
   15.4689   18.3530    6.8836 Pb  0  0  0  0  0 15  0  0  0  0  0  0
   15.5349   15.3286   10.6466 Pb  0  0  0  0  0 15  0  0  0  0  0  0
   17.8217   15.4952   12.3172 Pb  0  0  0  0  0 15  0  0  0  0  0  0
   17.2283   17.7387   10.3562 Pb  0  0  0  0  0 15  0  0  0  0  0  0
   15.4689   18.3530   11.8344 Pb  0  0  0  0  0 15  0  0  0  0  0  0
   15.5349   15.3286   15.5974 Pb  0  0  0  0  0 15  0  0  0  0  0  0
   17.8217   15.4952   17.2680 Pb  0  0  0  0  0 15  0  0  0  0  0  0
   17.2283   17.7387   15.3070 Pb  0  0  0  0  0 15  0  0  0  0  0  0
   15.4689   18.3530   16.7852 Pb  0  0  0  0  0 15  0  0  0  0  0  0
M  CHG  8   5  -4   6  -4   7  -4   8  -4   9  -4  10  -4  11  -4  12  -4
M  CHG  8  13  -4  14  -4  15  -4  16  -4  17  -4  18  -4  19  -4  20  -4
M  CHG  8  21  -4  22  -4  23  -4  24  -4  25  -4  26  -4  27  -4  28  -4
M  CHG  8  29  -4  30  -4  31  -4  32  -4  33  -4  34  -4  35  -4  36  -4
M  CHG  8  37  -4  38  -4  39  -4  40  -4  41  -4  42  -4  43  -4  44  -4
M  CHG  8  45  -4  46  -4  47  -4  48  -4  49  -4  50  -4  51  -4  52  -4
M  CHG  8  53  -4  54  -4  55  -4  56  -4  57  -4  58  -4  59  -4  60  -4
M  CHG  8  61  -4  62  -4  63  -4  64  -4  65  -4  66  -4  67  -4  68  -4
M  CHG  8  69  -4  70  -4  71  -4  72  -4  73  -4  74  -4  75  -4  76  -4
M  CHG  8  77  -4  78  -4  79  -4  80  -4  81  -4  82  -4  83  -4  84  -4
M  CHG  8  85  -4  86  -4  87  -4  88  -4  89  -4  90  -4  91  -4  92  -4
M  CHG  8  93  -4  94  -4  95  -4  96  -4  97  -4  98  -4  99  -4 100  -4
M  CHG  8 101  -4 102  -4 103  -4 104  -4 105  -4 106  -4 107  -4 108  -4
M  CHG  8 109  -4 110  -4 111  -4 112  -4 113  -4 114  -4 115  -4 116  -4
M  CHG  8 117  -4 118  -4 119  -4 120  -4 121  -4 122  -4 123  -4 124  -4
M  CHG  8 125  -4 126  -4 127  -4 128  -4 129  -4 130  -4 131  -4 132  -4
M  CHG  8 133  -4 134  -4 135  -4 136  -4 137  -4 138  -4 139  -4 140  -4
M  CHG  8 141  -4 142  -4 143  -4 144  -4 145  -4 146  -4 147  -4 148  -4
M  CHG  8 149  -4 150  -4 151  -4 152  -4 153  -4 154  -4 155  -4 156  -4
M  CHG  8 157  -4 158  -4 159  -4 160  -4 161  -4 162  -4 163  -4 164  -4
M  CHG  8 165  -4 166  -4 167  -4 168  -4 169  -4 170  -4 171  -4 172  -4
M  CHG  8 173  -4 174  -4 175  -4 176  -4 177  -4 178  -4 179  -4 180  -4
M  CHG  8 181  -4 182  -4 183  -4 184  -4 185  -4 186  -4 187  -4 188  -4
M  CHG  8 189  -4 190  -4 191  -4 192  -4 193  -4 194  -4 195  -4 196  -4
M  CHG  8 197  -4 198  -4 199  -4 200  -4 201  -4 202  -4 203  -4 204  -4
M  CHG  8 205  -4 206  -4 207  -4 208  -4 209  -4 210  -4 211  -4 212  -4
M  CHG  8 213  -4 214  -4 215  -4 216  -4 217  -4 218  -4 219  -4 220  -4
M  CHG  8 221  -4 222  -4 223  -4 224  -4 225  -4 226  -4 227  -4 228  -4
M  CHG  8 229  -4 230  -4 231  -4 232  -4 233  -4 234  -4 235  -4 236  -4
M  CHG  8 237  -4 238  -4 239  -4 240  -4 241  -4 242  -4 243  -4 244  -4
M  CHG  8 245  -4 246  -4 247  -4 248  -4 249  -4 250  -4 251  -4 252  -4
M  CHG  4 253  -4 254  -4 255  -4 256  -4
M  END
