
 OpenBabel10052215503D

 48  0  0  0  0  0  0  0  0  0999 V2000
    1.1074    1.7731    1.1313 Li  0  0  0  0  0 15  0  0  0  0  0  0
    2.3788    2.0456    2.5652 N   0  0  0  0  0  0  0  0  0  0  0  0
    0.8174    1.4959    5.6295 Nd  0  0  0  0  0 15  0  0  0  0  0  0
    2.3693    1.7868    7.6057 Zn  0  0  0  0  0 15  0  0  0  0  0  0
    0.9608    0.9341   10.7094 Cr  0  0  0  0  0 15  0  0  0  0  0  0
    2.7470    1.8736   12.6225 Zr  0  0  0  0  0 15  0  0  0  0  0  0
    1.5069    5.5841    0.8038 Ba  0  0  0  0  0 15  0  0  0  0  0  0
    2.3788    7.0736    2.5652 Ba  0  0  0  0  0 15  0  0  0  0  0  0
    1.6877    5.0980    5.6772 Ba  0  0  0  0  0 15  0  0  0  0  0  0
    2.3788    7.0736    7.5932 Ba  0  0  0  0  0 15  0  0  0  0  0  0
    1.8366    4.9961   10.6999 Ba  0  0  0  0  0 15  0  0  0  0  0  0
    2.3788    7.0736   12.6212 Ba  0  0  0  0  0 15  0  0  0  0  0  0
    2.3788   12.1016    7.5932 S   0  0  0  0  0  0  0  0  0  0  0  0
    1.3672   10.6083   10.8413 Ba  0  0  0  0  0 15  0  0  0  0  0  0
    2.3788   12.1016   12.6212 S   0  0  0  0  0  0  0  0  0  0  0  0
    5.2581    1.4645    1.6580 Nb  0  0  0  0  0 15  0  0  0  0  0  0
    7.4068    2.0456    2.5652 Co  0  0  0  0  0 15  0  0  0  0  0  0
    5.4549    1.5734    5.6406 La  0  0  0  0  0 15  0  0  0  0  0  0
    7.4068    2.0456    7.5932 Ce  0  0  0  0  0 15  0  0  0  0  0  0
    5.4465    1.4343   10.7082 Rb  0  0  0  0  0 15  0  0  0  0  0  0
    7.4068    2.0456   12.6212 Cl  0  0  0  0  0  0  0  0  0  0  0  0
    5.3431    5.7593    1.3484 Ba  0  0  0  0  0 15  0  0  0  0  0  0
    7.4068    7.0736    2.5652 C   0  0  0  0  0  0  0  0  0  0  0  0
    5.4257    5.8949    5.7076 Ba  0  0  0  0  0 15  0  0  0  0  0  0
    7.4068    7.0736    7.5932 Ba  0  0  0  0  0 15  0  0  0  0  0  0
    5.4257    5.8949   10.7356 Ba  0  0  0  0  0 15  0  0  0  0  0  0
    7.4068    7.0736   12.6212 Ba  0  0  0  0  0 15  0  0  0  0  0  0
    7.4068   12.1016    2.5652 Ba  0  0  0  0  0 15  0  0  0  0  0  0
    5.4257   10.9229    5.7076 S   0  0  0  0  0  0  0  0  0  0  0  0
    7.4068   12.1016    7.5932 Ba  0  0  0  0  0 15  0  0  0  0  0  0
    5.4257   10.9229   10.7356 S   0  0  0  0  0  0  0  0  0  0  0  0
    7.4068   12.1016   12.6212 S   0  0  0  0  0  0  0  0  0  0  0  0
   13.7611    2.0244    1.1690 Ga  0  0  0  0  0 15  0  0  0  0  0  0
   12.4348    2.0456    2.5652 Sc  0  0  0  0  0 15  0  0  0  0  0  0
   10.4716    1.3799    5.6921 Y   0  0  0  0  0 15  0  0  0  0  0  0
   12.4348    2.0456    7.5932 Cu  0  0  0  0  0 15  0  0  0  0  0  0
   10.4682    1.4166   10.7655 Ni  0  0  0  0  0 15  0  0  0  0  0  0
   12.4348    2.0456   12.6212 V   0  0  0  0  0 15  0  0  0  0  0  0
   12.4348    7.0736    2.5652 C   0  0  0  0  0  0  0  0  0  0  0  0
   10.4537    5.8949    5.7076 C   0  0  0  0  0  0  0  0  0  0  0  0
   12.4348    7.0736    7.5932 C   0  0  0  0  0  0  0  0  0  0  0  0
   10.4537    5.8949   10.7356 C   0  0  0  0  0  0  0  0  0  0  0  0
   12.4348    7.0736   12.6212 C   0  0  0  0  0  0  0  0  0  0  0  0
   12.4348   12.1016    2.5652 Sr  0  0  0  0  0 15  0  0  0  0  0  0
   10.4537   10.9229    5.7076 Sr  0  0  0  0  0 15  0  0  0  0  0  0
   12.4348   12.1016    7.5932 Sr  0  0  0  0  0 15  0  0  0  0  0  0
   10.4537   10.9229   10.7356 S   0  0  0  0  0  0  0  0  0  0  0  0
   12.4348   12.1016   12.6212 S   0  0  0  0  0  0  0  0  0  0  0  0
M  CHG  8   3  -6   4  -6   5  -6   6  -6   7  -6   8  -6   9  -6  10  -6
M  CHG  8  11  -6  12  -6  13  -6  14  -6  15  -6  16  -6  17  -6  18  -6
M  CHG  8  19  -6  20  -6  21  -6  22  -6  23  -6  24  -6  25  -6  26  -6
M  CHG  8  27  -6  28  -6  29  -6  30  -6  31  -6  32  -6  33  -6  34  -6
M  CHG  8  35  -6  36  -6  37  -6  38  -6  39  -6  40  -6  41  -6  42  -6
M  CHG  6  43  -6  44  -6  45  -6  46  -6  47  -6  48  -6
M  END
