C27H28N9O15P2
APtclcactv09122213203D 0   0.00000     0.00000
 
 81 86  0  0  0  0  0  0  0  0999 V2000
   -3.4700   -2.3238   -0.2105 P   0  0  0  0  0  0  0  0  0  0  0  0
   -4.2043   -3.5119   -0.7000 O   0  0  0  0  0  0  0  0  0  0  0  0
   -3.8057   -2.0894    1.3466 O   0  0  0  0  0  0  0  0  0  0  0  0
   -3.3577   -1.3254    1.7349 H   0  0  0  0  0  0  0  0  0  0  0  0
   -1.8874   -2.5600   -0.3886 O   0  0  0  0  0  0  0  0  0  0  0  0
   -0.9148   -3.8256   -0.1778 P   0  0  0  0  0  0  0  0  0  0  0  0
   -1.3214   -4.5629    1.0393 O   0  0  0  0  0  0  0  0  0  0  0  0
   -1.0177   -4.8001   -1.4552 O   0  0  0  0  0  0  0  0  0  0  0  0
   -0.7654   -4.3823   -2.2900 H   0  0  0  0  0  0  0  0  0  0  0  0
    0.6030   -3.3144   -0.0136 O   0  0  0  0  0  0  0  0  0  0  0  0
    1.6904   -4.1899    0.2919 C   0  0  0  0  0  0  0  0  0  0  0  0
    3.0126   -3.3665    0.3778 C   0  0  2  0  0  0  0  0  0  0  0  0
    4.3348   -2.5432    0.4636 C   0  0  2  0  0  0  0  0  0  0  0  0
    5.6571   -1.7198    0.5495 C   0  0  2  0  0  0  0  0  0  0  0  0
    6.9793   -0.8965    0.6353 C   0  0  0  0  0  0  0  0  0  0  0  0
    6.6924    0.5165    0.3759 N   0  0  0  0  0  0  0  0  0  0  0  0
    6.3717    1.3601    1.4168 C   0  0  0  0  0  0  0  0  0  0  0  0
    5.8348    2.5922    1.1640 C   0  0  0  0  0  0  0  0  0  0  0  0
    5.5139    3.4361    2.2384 C   0  0  0  0  0  0  0  0  0  0  0  0
    5.7427    3.0166    3.4996 N   0  0  0  0  0  0  0  0  0  0  0  0
    5.5233    3.5959    4.2460 H   0  0  0  0  0  0  0  0  0  0  0  0
    6.2730    1.8022    3.7317 C   0  0  0  0  0  0  0  0  0  0  0  0
    6.5878    0.9739    2.7182 N   0  0  0  0  0  0  0  0  0  0  0  0
    6.9688    0.1021    2.9068 H   0  0  0  0  0  0  0  0  0  0  0  0
    6.4711    1.4461    4.8775 O   0  0  0  0  0  0  0  0  0  0  0  0
    5.0330    4.5385    2.0335 O   0  0  0  0  0  0  0  0  0  0  0  0
    5.6091    3.0066   -0.1721 N   0  0  0  0  0  0  0  0  0  0  0  0
    5.0592    3.7825   -0.3634 H   0  0  0  0  0  0  0  0  0  0  0  0
    6.1969    2.2714   -1.2129 C   0  0  0  0  0  0  0  0  0  0  0  0
    6.2404    2.7761   -2.5003 C   0  0  0  0  0  0  0  0  0  0  0  0
    6.8265    2.0327   -3.5112 C   0  0  0  0  0  0  0  0  0  0  0  0
    6.8753    2.5799   -4.9145 C   0  0  0  0  0  0  0  0  0  0  0  0
    7.3669    0.7910   -3.2369 C   0  0  0  0  0  0  0  0  0  0  0  0
    8.0032   -0.0112   -4.3426 C   0  0  0  0  0  0  0  0  0  0  0  0
    7.3268    0.2807   -1.9501 C   0  0  0  0  0  0  0  0  0  0  0  0
    6.7486    1.0188   -0.9342 C   0  0  0  0  0  0  0  0  0  0  0  0
    6.3725   -2.8992    0.8417 O   0  0  0  0  0  0  0  0  0  0  0  0
    7.3208   -2.7619    0.9719 H   0  0  0  0  0  0  0  0  0  0  0  0
    3.6194   -1.3638    0.1713 O   0  0  0  0  0  0  0  0  0  0  0  0
    4.1686   -0.5686    0.1384 H   0  0  0  0  0  0  0  0  0  0  0  0
    3.7280   -4.5459    0.6701 O   0  0  0  0  0  0  0  0  0  0  0  0
    4.6763   -4.4086    0.8002 H   0  0  0  0  0  0  0  0  0  0  0  0
   -3.9181   -1.0296   -1.0568 O   0  0  0  0  0  0  0  0  0  0  0  0
   -5.2804   -0.6182   -1.1870 C   0  0  0  0  0  0  0  0  0  0  0  0
   -5.3537    0.6666   -2.0695 C   0  0  2  0  0  0  0  0  0  0  0  0
   -5.2377    1.9358   -2.9530 C   0  0  2  0  0  0  0  0  0  0  0  0
   -6.7118    2.4046   -3.0572 C   0  0  2  0  0  0  0  0  0  0  0  0
   -7.1756    1.9518   -1.6455 C   0  0  2  0  0  0  0  0  0  0  0  0
   -7.6097    1.4708   -0.2925 N   0  0  0  0  0  0  0  0  0  0  0  0
   -8.5937    0.5627   -0.0367 C   0  0  0  0  0  0  0  0  0  0  0  0
   -8.7053    0.3777    1.2466 N   0  0  0  0  0  0  0  0  0  0  0  0
   -7.8026    1.1529    1.8941 C   0  0  0  0  0  0  0  0  0  0  0  0
   -7.4698    1.3660    3.2425 C   0  0  0  0  0  0  0  0  0  0  0  0
   -8.1379    0.6943    4.2513 N   0  0  0  0  0  0  0  0  0  0  0  0
   -8.8450    0.0678    4.0313 H   0  0  0  0  0  0  0  0  0  0  0  0
   -7.8990    0.8499    5.1785 H   0  0  0  0  0  0  0  0  0  0  0  0
   -6.4983    2.2273    3.5266 N   0  0  0  0  0  0  0  0  0  0  0  0
   -5.8552    2.8724    2.5706 C   0  0  0  0  0  0  0  0  0  0  0  0
   -6.1326    2.7046    1.2947 N   0  0  0  0  0  0  0  0  0  0  0  0
   -7.0850    1.8595    0.9141 C   0  0  0  0  0  0  0  0  0  0  0  0
   -6.7532    0.6505   -1.9729 O   0  0  0  0  0  0  0  0  0  0  0  0
   -8.0085    2.8906   -3.3262 O   0  0  0  0  0  0  0  0  0  0  0  0
   -8.1069    3.2839   -4.2041 H   0  0  0  0  0  0  0  0  0  0  0  0
   -4.8407    3.0266   -3.7562 O   0  0  0  0  0  0  0  0  0  0  0  0
   -3.8890    3.0664   -3.9228 H   0  0  0  0  0  0  0  0  0  0  0  0
    1.5048   -4.6799    1.2477 H   0  0  0  0  0  0  0  0  0  0  0  0
    1.7814   -4.9430   -0.4908 H   0  0  0  0  0  0  0  0  0  0  0  0
    7.4096   -1.0030    1.6311 H   0  0  0  0  0  0  0  0  0  0  0  0
    7.6863   -1.2660   -0.1075 H   0  0  0  0  0  0  0  0  0  0  0  0
    5.8183    3.7464   -2.7164 H   0  0  0  0  0  0  0  0  0  0  0  0
    7.7939    3.1509   -5.0500 H   0  0  0  0  0  0  0  0  0  0  0  0
    6.8516    1.7554   -5.6270 H   0  0  0  0  0  0  0  0  0  0  0  0
    6.0159    3.2292   -5.0814 H   0  0  0  0  0  0  0  0  0  0  0  0
    9.0631    0.2348   -4.4063 H   0  0  0  0  0  0  0  0  0  0  0  0
    7.8890   -1.0746   -4.1320 H   0  0  0  0  0  0  0  0  0  0  0  0
    7.5176    0.2259   -5.2892 H   0  0  0  0  0  0  0  0  0  0  0  0
    7.7505   -0.6902   -1.7394 H   0  0  0  0  0  0  0  0  0  0  0  0
   -5.8573   -1.4149   -1.6566 H   0  0  0  0  0  0  0  0  0  0  0  0
   -5.6914   -0.4051   -0.2002 H   0  0  0  0  0  0  0  0  0  0  0  0
   -9.1925    0.0697   -0.7883 H   0  0  0  0  0  0  0  0  0  0  0  0
   -5.0724    3.5638    2.8458 H   0  0  0  0  0  0  0  0  0  0  0  0
  1  2  2  0  0  0  0
  1  3  1  0  0  0  0
  3  4  1  0  0  0  0
  1  5  1  0  0  0  0
  5  6  1  0  0  0  0
  6  7  2  0  0  0  0
  6  8  1  0  0  0  0
  8  9  1  0  0  0  0
  6 10  1  0  0  0  0
 10 11  1  0  0  0  0
 11 12  1  0  0  0  0
 12 13  1  0  0  0  0
 13 14  1  0  0  0  0
 14 15  1  0  0  0  0
 15 16  1  0  0  0  0
 16 17  1  0  0  0  0
 17 18  2  0  0  0  0
 18 19  1  0  0  0  0
 19 20  1  0  0  0  0
 20 21  1  0  0  0  0
 20 22  1  0  0  0  0
 22 23  1  0  0  0  0
 17 23  1  0  0  0  0
 23 24  1  0  0  0  0
 22 25  2  0  0  0  0
 19 26  2  0  0  0  0
 18 27  1  0  0  0  0
 27 28  1  0  0  0  0
 27 29  1  0  0  0  0
 29 30  1  0  0  0  0
 30 31  2  0  0  0  0
 31 32  1  0  0  0  0
 31 33  1  0  0  0  0
 33 34  1  0  0  0  0
 33 35  2  0  0  0  0
 35 36  1  0  0  0  0
 16 36  1  0  0  0  0
 29 36  2  0  0  0  0
 14 37  1  0  0  0  0
 37 38  1  0  0  0  0
 13 39  1  0  0  0  0
 39 40  1  0  0  0  0
 12 41  1  0  0  0  0
 41 42  1  0  0  0  0
  1 43  1  0  0  0  0
 43 44  1  0  0  0  0
 44 45  1  0  0  0  0
 45 46  1  0  0  0  0
 46 47  1  0  0  0  0
 47 48  1  0  0  0  0
 48 49  1  0  0  0  0
 49 50  1  0  0  0  0
 50 51  2  0  0  0  0
 51 52  1  0  0  0  0
 52 53  2  0  0  0  0
 53 54  1  0  0  0  0
 54 55  1  0  0  0  0
 54 56  1  0  0  0  0
 53 57  1  0  0  0  0
 57 58  2  0  0  0  0
 58 59  1  0  0  0  0
 59 60  2  0  0  0  0
 49 60  1  0  0  0  0
 52 60  1  0  0  0  0
 48 61  1  0  0  0  0
 45 61  1  0  0  0  0
 47 62  1  0  0  0  0
 62 63  1  0  0  0  0
 46 64  1  0  0  0  0
 64 65  1  0  0  0  0
 11 66  1  0  0  0  0
 11 67  1  0  0  0  0
 15 68  1  0  0  0  0
 15 69  1  0  0  0  0
 30 70  1  0  0  0  0
 32 71  1  0  0  0  0
 32 72  1  0  0  0  0
 32 73  1  0  0  0  0
 34 74  1  0  0  0  0
 34 75  1  0  0  0  0
 34 76  1  0  0  0  0
 35 77  1  0  0  0  0
 44 78  1  0  0  0  0
 44 79  1  0  0  0  0
 50 80  1  0  0  0  0
 58 81  1  0  0  0  0
M  RAD  7  12   2  13   2  14   2  45   2  46   2  47   2  48   2
M  END
$$$$
