C10H12N5O14P3
APtclcactv09122213153D 0   0.00000     0.00000
 
 44 46  0  0  0  0  0  0  0  0999 V2000
    1.1563   -0.2347    1.0174 P   0  0  0  0  0  0  0  0  0  0  0  0
    1.2846   -0.6747    2.4247 O   0  0  0  0  0  0  0  0  0  0  0  0
    0.7518    1.3231    0.9769 O   0  0  0  0  0  0  0  0  0  0  0  0
    0.6502    1.6800    0.0840 H   0  0  0  0  0  0  0  0  0  0  0  0
    2.5613   -0.4442    0.2595 O   0  0  0  0  0  0  0  0  0  0  0  0
    4.1006   -0.2229    0.6760 P   0  0  0  0  0  0  0  0  0  0  0  0
    4.2239    1.0228    1.4656 O   0  0  0  0  0  0  0  0  0  0  0  0
    4.6019   -1.4710    1.5610 O   0  0  0  0  0  0  0  0  0  0  0  0
    4.5490   -2.3225    1.1057 H   0  0  0  0  0  0  0  0  0  0  0  0
    5.0046   -0.1087   -0.6513 O   0  0  0  0  0  0  0  0  0  0  0  0
    6.5032    0.4024   -0.9433 P   0  0  0  0  0  0  0  0  0  0  0  0
    6.7784    1.6112   -0.1348 O   0  0  0  0  0  0  0  0  0  0  0  0
    7.5510   -0.7554   -0.5514 O   0  0  0  0  0  0  0  0  0  0  0  0
    7.4295   -1.5789   -1.0435 H   0  0  0  0  0  0  0  0  0  0  0  0
    6.6544    0.7565   -2.5066 O   0  0  0  0  0  0  0  0  0  0  0  0
    7.5341    1.0717   -2.7551 H   0  0  0  0  0  0  0  0  0  0  0  0
    0.0165   -1.1044    0.2850 O   0  0  0  0  0  0  0  0  0  0  0  0
   -1.3191   -1.2129    0.7815 C   0  0  0  0  0  0  0  0  0  0  0  0
   -2.1542   -2.1275   -0.1678 C   0  0  2  0  0  0  0  0  0  0  0  0
   -2.8287   -3.0477   -1.2181 C   0  0  2  0  0  0  0  0  0  0  0  0
   -4.2893   -3.1246   -0.7041 C   0  0  2  0  0  0  0  0  0  0  0  0
   -4.3805   -1.6892   -0.1173 C   0  0  2  0  0  0  0  0  0  0  0  0
   -4.4312   -0.3125    0.4764 N   0  0  0  0  0  0  0  0  0  0  0  0
   -4.6695   -0.0060    1.7848 C   0  0  0  0  0  0  0  0  0  0  0  0
   -4.6406    1.2844    1.9477 N   0  0  0  0  0  0  0  0  0  0  0  0
   -4.3830    1.8812    0.7585 C   0  0  0  0  0  0  0  0  0  0  0  0
   -4.2396    3.2252    0.3413 C   0  0  0  0  0  0  0  0  0  0  0  0
   -3.9765    3.4680   -0.9619 N   0  0  0  0  0  0  0  0  0  0  0  0
   -3.8740    4.3815   -1.2715 H   0  0  0  0  0  0  0  0  0  0  0  0
   -3.8542    2.4356   -1.8434 C   0  0  0  0  0  0  0  0  0  0  0  0
   -3.5864    2.7123   -3.1606 N   0  0  0  0  0  0  0  0  0  0  0  0
   -3.4870    3.6319   -3.4525 H   0  0  0  0  0  0  0  0  0  0  0  0
   -3.4966    1.9882   -3.7997 H   0  0  0  0  0  0  0  0  0  0  0  0
   -3.9848    1.1827   -1.4683 N   0  0  0  0  0  0  0  0  0  0  0  0
   -4.2411    0.8654   -0.1938 C   0  0  0  0  0  0  0  0  0  0  0  0
   -4.3508    4.1418    1.1374 O   0  0  0  0  0  0  0  0  0  0  0  0
   -3.2629   -1.9927    0.6814 O   0  0  0  0  0  0  0  0  0  0  0  0
   -5.6194   -3.3714   -0.3041 O   0  0  0  0  0  0  0  0  0  0  0  0
   -5.9390   -4.2567   -0.5262 H   0  0  0  0  0  0  0  0  0  0  0  0
   -3.1708   -3.8904   -2.2975 O   0  0  0  0  0  0  0  0  0  0  0  0
   -2.4348   -4.0838   -2.8942 H   0  0  0  0  0  0  0  0  0  0  0  0
   -1.3009   -1.6472    1.7811 H   0  0  0  0  0  0  0  0  0  0  0  0
   -1.7726   -0.2227    0.8237 H   0  0  0  0  0  0  0  0  0  0  0  0
   -4.8549   -0.7267    2.5675 H   0  0  0  0  0  0  0  0  0  0  0  0
  1  2  2  0  0  0  0
  1  3  1  0  0  0  0
  3  4  1  0  0  0  0
  1  5  1  0  0  0  0
  5  6  1  0  0  0  0
  6  7  2  0  0  0  0
  6  8  1  0  0  0  0
  8  9  1  0  0  0  0
  6 10  1  0  0  0  0
 10 11  1  0  0  0  0
 11 12  2  0  0  0  0
 11 13  1  0  0  0  0
 13 14  1  0  0  0  0
 11 15  1  0  0  0  0
 15 16  1  0  0  0  0
  1 17  1  0  0  0  0
 17 18  1  0  0  0  0
 18 19  1  0  0  0  0
 19 20  1  0  0  0  0
 20 21  1  0  0  0  0
 21 22  1  0  0  0  0
 22 23  1  0  0  0  0
 23 24  1  0  0  0  0
 24 25  2  0  0  0  0
 25 26  1  0  0  0  0
 26 27  1  0  0  0  0
 27 28  1  0  0  0  0
 28 29  1  0  0  0  0
 28 30  1  0  0  0  0
 30 31  1  0  0  0  0
 31 32  1  0  0  0  0
 31 33  1  0  0  0  0
 30 34  2  0  0  0  0
 34 35  1  0  0  0  0
 23 35  1  0  0  0  0
 26 35  2  0  0  0  0
 27 36  2  0  0  0  0
 22 37  1  0  0  0  0
 19 37  1  0  0  0  0
 21 38  1  0  0  0  0
 38 39  1  0  0  0  0
 20 40  1  0  0  0  0
 40 41  1  0  0  0  0
 18 42  1  0  0  0  0
 18 43  1  0  0  0  0
 24 44  1  0  0  0  0
M  RAD  4  19   2  20   2  21   2  22   2
M  END
$$$$
