
 OpenBabel10052215553D

125  0  0  0  0  0  0  0  0  0999 V2000
    2.3113    1.9671    2.0000 Pm  0  0  0  0  0 15  0  0  0  0  0  0
    2.3113    1.9671    6.0000 Fr  0  0  0  0  0 15  0  0  0  0  0  0
    2.3113    1.9671   10.0000 Pm  0  0  0  0  0 15  0  0  0  0  0  0
    2.3113    1.9671   14.0000 Pm  0  0  0  0  0 15  0  0  0  0  0  0
    2.3113    1.9671   18.0000 Pm  0  0  0  0  0 15  0  0  0  0  0  0
    2.3113    5.9671    2.0000 Pm  0  0  0  0  0 15  0  0  0  0  0  0
    2.3113    5.9671    6.0000 Pm  0  0  0  0  0 15  0  0  0  0  0  0
    2.3113    5.9671   10.0000 Fr  0  0  0  0  0 15  0  0  0  0  0  0
    2.3113    5.9671   14.0000 Pm  0  0  0  0  0 15  0  0  0  0  0  0
    2.3113    5.9671   18.0000 Pm  0  0  0  0  0 15  0  0  0  0  0  0
    2.3113    9.9671    2.0000 Pm  0  0  0  0  0 15  0  0  0  0  0  0
    2.3113    9.9671    6.0000 Pm  0  0  0  0  0 15  0  0  0  0  0  0
    2.3113    9.9671   10.0000 Pm  0  0  0  0  0 15  0  0  0  0  0  0
    2.3113    9.9671   14.0000 Pm  0  0  0  0  0 15  0  0  0  0  0  0
    2.3113    9.9671   18.0000 Fr  0  0  0  0  0 15  0  0  0  0  0  0
    2.3113   13.9671    2.0000 Pm  0  0  0  0  0 15  0  0  0  0  0  0
    2.3113   13.9671    6.0000 Pm  0  0  0  0  0 15  0  0  0  0  0  0
    2.3113   13.9671   10.0000 Pm  0  0  0  0  0 15  0  0  0  0  0  0
    2.3113   13.9671   14.0000 Pm  0  0  0  0  0 15  0  0  0  0  0  0
    2.3113   13.9671   18.0000 Pm  0  0  0  0  0 15  0  0  0  0  0  0
    2.3113   17.9671    2.0000 Pm  0  0  0  0  0 15  0  0  0  0  0  0
    2.3113   17.9671    6.0000 Pm  0  0  0  0  0 15  0  0  0  0  0  0
    2.3113   17.9671   10.0000 Pm  0  0  0  0  0 15  0  0  0  0  0  0
    2.3113   17.9671   14.0000 Pm  0  0  0  0  0 15  0  0  0  0  0  0
    2.3113   17.9671   18.0000 Pm  0  0  0  0  0 15  0  0  0  0  0  0
    6.3113    1.9671    2.0000 Pm  0  0  0  0  0 15  0  0  0  0  0  0
    6.3113    1.9671    6.0000 Pm  0  0  0  0  0 15  0  0  0  0  0  0
    6.3113    1.9671   10.0000 Fr  0  0  0  0  0 15  0  0  0  0  0  0
    6.3113    1.9671   14.0000 Pm  0  0  0  0  0 15  0  0  0  0  0  0
    6.3113    1.9671   18.0000 Pm  0  0  0  0  0 15  0  0  0  0  0  0
    6.3113    5.9671    2.0000 Pm  0  0  0  0  0 15  0  0  0  0  0  0
    6.3113    5.9671    6.0000 Pm  0  0  0  0  0 15  0  0  0  0  0  0
    6.3113    5.9671   10.0000 Pm  0  0  0  0  0 15  0  0  0  0  0  0
    6.3113    5.9671   14.0000 Pm  0  0  0  0  0 15  0  0  0  0  0  0
    6.3113    5.9671   18.0000 Pm  0  0  0  0  0 15  0  0  0  0  0  0
    6.3113    9.9671    2.0000 Pm  0  0  0  0  0 15  0  0  0  0  0  0
    6.3113    9.9671    6.0000 Pm  0  0  0  0  0 15  0  0  0  0  0  0
    6.3113    9.9671   10.0000 Pm  0  0  0  0  0 15  0  0  0  0  0  0
    6.3113    9.9671   14.0000 Pm  0  0  0  0  0 15  0  0  0  0  0  0
    6.3113    9.9671   18.0000 Fr  0  0  0  0  0 15  0  0  0  0  0  0
    6.3113   13.9671    2.0000 Pm  0  0  0  0  0 15  0  0  0  0  0  0
    6.3113   13.9671    6.0000 Pm  0  0  0  0  0 15  0  0  0  0  0  0
    6.3113   13.9671   10.0000 Pm  0  0  0  0  0 15  0  0  0  0  0  0
    6.3113   13.9671   14.0000 Pm  0  0  0  0  0 15  0  0  0  0  0  0
    6.3113   13.9671   18.0000 Pm  0  0  0  0  0 15  0  0  0  0  0  0
    6.3113   17.9671    2.0000 Pm  0  0  0  0  0 15  0  0  0  0  0  0
    6.3113   17.9671    6.0000 Pm  0  0  0  0  0 15  0  0  0  0  0  0
    6.3113   17.9671   10.0000 Pm  0  0  0  0  0 15  0  0  0  0  0  0
    6.3113   17.9671   14.0000 Pm  0  0  0  0  0 15  0  0  0  0  0  0
    6.3113   17.9671   18.0000 Pm  0  0  0  0  0 15  0  0  0  0  0  0
   10.3113    1.9671    2.0000 Pm  0  0  0  0  0 15  0  0  0  0  0  0
   10.3113    1.9671    6.0000 Pm  0  0  0  0  0 15  0  0  0  0  0  0
   10.3113    1.9671   10.0000 Pm  0  0  0  0  0 15  0  0  0  0  0  0
   10.3113    1.9671   14.0000 Fr  0  0  0  0  0 15  0  0  0  0  0  0
   10.3113    1.9671   18.0000 Pm  0  0  0  0  0 15  0  0  0  0  0  0
   10.3113    5.9671    2.0000 Pm  0  0  0  0  0 15  0  0  0  0  0  0
   10.3113    5.9671    6.0000 Pm  0  0  0  0  0 15  0  0  0  0  0  0
   10.3113    5.9671   10.0000 Pm  0  0  0  0  0 15  0  0  0  0  0  0
   10.3113    5.9671   14.0000 Pm  0  0  0  0  0 15  0  0  0  0  0  0
   10.3113    5.9671   18.0000 Fr  0  0  0  0  0 15  0  0  0  0  0  0
   10.3113    9.9671    2.0000 Pm  0  0  0  0  0 15  0  0  0  0  0  0
   10.3113    9.9671    6.0000 Pm  0  0  0  0  0 15  0  0  0  0  0  0
   10.3113    9.9671   10.0000 Pm  0  0  0  0  0 15  0  0  0  0  0  0
   10.3113    9.9671   14.0000 Pm  0  0  0  0  0 15  0  0  0  0  0  0
   10.3113    9.9671   18.0000 Fr  0  0  0  0  0 15  0  0  0  0  0  0
   10.3113   13.9671    2.0000 Pm  0  0  0  0  0 15  0  0  0  0  0  0
   10.3113   13.9671    6.0000 Pm  0  0  0  0  0 15  0  0  0  0  0  0
   10.3113   13.9671   10.0000 Pm  0  0  0  0  0 15  0  0  0  0  0  0
   10.3113   13.9671   14.0000 Pm  0  0  0  0  0 15  0  0  0  0  0  0
   10.3113   13.9671   18.0000 Fr  0  0  0  0  0 15  0  0  0  0  0  0
   10.3113   17.9671    2.0000 Pm  0  0  0  0  0 15  0  0  0  0  0  0
   10.3113   17.9671    6.0000 Pm  0  0  0  0  0 15  0  0  0  0  0  0
   10.3113   17.9671   10.0000 Pm  0  0  0  0  0 15  0  0  0  0  0  0
   10.3113   17.9671   14.0000 Pm  0  0  0  0  0 15  0  0  0  0  0  0
   10.3113   17.9671   18.0000 Pm  0  0  0  0  0 15  0  0  0  0  0  0
   14.3113    1.9671    2.0000 Pm  0  0  0  0  0 15  0  0  0  0  0  0
   14.3113    1.9671    6.0000 Pm  0  0  0  0  0 15  0  0  0  0  0  0
   14.3113    1.9671   10.0000 Fr  0  0  0  0  0 15  0  0  0  0  0  0
   14.3113    1.9671   14.0000 Pm  0  0  0  0  0 15  0  0  0  0  0  0
   14.3113    1.9671   18.0000 Pm  0  0  0  0  0 15  0  0  0  0  0  0
   14.3113    5.9671    2.0000 Pm  0  0  0  0  0 15  0  0  0  0  0  0
   14.3113    5.9671    6.0000 Pm  0  0  0  0  0 15  0  0  0  0  0  0
   14.3113    5.9671   10.0000 Pm  0  0  0  0  0 15  0  0  0  0  0  0
   14.3113    5.9671   14.0000 At  0  0  0  0  0  0  0  0  0  0  0  0
   14.3113    5.9671   18.0000 Pm  0  0  0  0  0 15  0  0  0  0  0  0
   14.3113    9.9671    2.0000 Pm  0  0  0  0  0 15  0  0  0  0  0  0
   14.3113    9.9671    6.0000 Pm  0  0  0  0  0 15  0  0  0  0  0  0
   14.3113    9.9671   10.0000 Pm  0  0  0  0  0 15  0  0  0  0  0  0
   14.3113    9.9671   14.0000 Pm  0  0  0  0  0 15  0  0  0  0  0  0
   14.3113    9.9671   18.0000 Fr  0  0  0  0  0 15  0  0  0  0  0  0
   14.3113   13.9671    2.0000 Pm  0  0  0  0  0 15  0  0  0  0  0  0
   14.3113   13.9671    6.0000 Pm  0  0  0  0  0 15  0  0  0  0  0  0
   14.3113   13.9671   10.0000 Pm  0  0  0  0  0 15  0  0  0  0  0  0
   14.3113   13.9671   14.0000 Pm  0  0  0  0  0 15  0  0  0  0  0  0
   14.3113   13.9671   18.0000 Pm  0  0  0  0  0 15  0  0  0  0  0  0
   14.3113   17.9671    2.0000 Pm  0  0  0  0  0 15  0  0  0  0  0  0
   14.3113   17.9671    6.0000 Pm  0  0  0  0  0 15  0  0  0  0  0  0
   14.3113   17.9671   10.0000 Pm  0  0  0  0  0 15  0  0  0  0  0  0
   14.3113   17.9671   14.0000 Pm  0  0  0  0  0 15  0  0  0  0  0  0
   14.3113   17.9671   18.0000 Pm  0  0  0  0  0 15  0  0  0  0  0  0
   18.3113    1.9671    2.0000 Pm  0  0  0  0  0 15  0  0  0  0  0  0
   18.3113    1.9671    6.0000 Pm  0  0  0  0  0 15  0  0  0  0  0  0
   18.3113    1.9671   10.0000 Pm  0  0  0  0  0 15  0  0  0  0  0  0
   18.3113    1.9671   14.0000 Pm  0  0  0  0  0 15  0  0  0  0  0  0
   18.3113    1.9671   18.0000 Pm  0  0  0  0  0 15  0  0  0  0  0  0
   18.3113    5.9671    2.0000 Pm  0  0  0  0  0 15  0  0  0  0  0  0
   18.3113    5.9671    6.0000 Pm  0  0  0  0  0 15  0  0  0  0  0  0
   18.3113    5.9671   10.0000 Pm  0  0  0  0  0 15  0  0  0  0  0  0
   18.3113    5.9671   14.0000 Pm  0  0  0  0  0 15  0  0  0  0  0  0
   18.3113    5.9671   18.0000 Fr  0  0  0  0  0 15  0  0  0  0  0  0
   18.3113    9.9671    2.0000 Pm  0  0  0  0  0 15  0  0  0  0  0  0
   18.3113    9.9671    6.0000 Pm  0  0  0  0  0 15  0  0  0  0  0  0
   18.3113    9.9671   10.0000 Pm  0  0  0  0  0 15  0  0  0  0  0  0
   18.3113    9.9671   14.0000 Pm  0  0  0  0  0 15  0  0  0  0  0  0
   18.3113    9.9671   18.0000 Pm  0  0  0  0  0 15  0  0  0  0  0  0
   18.3113   13.9671    2.0000 Pm  0  0  0  0  0 15  0  0  0  0  0  0
   18.3113   13.9671    6.0000 Pm  0  0  0  0  0 15  0  0  0  0  0  0
   18.3113   13.9671   10.0000 Pm  0  0  0  0  0 15  0  0  0  0  0  0
   18.3113   13.9671   14.0000 Pm  0  0  0  0  0 15  0  0  0  0  0  0
   18.3113   13.9671   18.0000 Pm  0  0  0  0  0 15  0  0  0  0  0  0
   18.3113   17.9671    2.0000 Pm  0  0  0  0  0 15  0  0  0  0  0  0
   18.3113   17.9671    6.0000 Pm  0  0  0  0  0 15  0  0  0  0  0  0
   18.3113   17.9671   10.0000 Pm  0  0  0  0  0 15  0  0  0  0  0  0
   18.3113   17.9671   14.0000 Pm  0  0  0  0  0 15  0  0  0  0  0  0
   18.3113   17.9671   18.0000 Pm  0  0  0  0  0 15  0  0  0  0  0  0
M  END
